data_BEDYEQ

_audit_creation_method RASPA-1.0
_audit_creation_date 2020-4-3
_audit_author_name 'Rocio Bueno-Perez'

_cell_length_a    41.968
_cell_length_b    41.968
_cell_length_c    17.143
_cell_angle_alpha 90
_cell_angle_beta  90
_cell_angle_gamma 120
_cell_volume      26148.9

_symmetry_cell_setting          hexagonal
_symmetry_space_group_name_Hall 'P 1'
_symmetry_space_group_name_H-M  'P 1'
_symmetry_Int_Tables_number     1

_symmetry_equiv_pos_as_xyz 'x,y,z'

loop_
_atom_site_label
_atom_site_type_symbol
_atom_site_fract_x
_atom_site_fract_y
_atom_site_fract_z
_atom_site_charge
Zr1      Zr     0.457975000000     0.000000000000     0.102660000000     0          
Zr2      Zr     0.533821000000     0.067643000000     0.000000000000     0          
Fe1      Fe     0.512000000000     0.256000000000     0.500000000000     0          
O1       O      0.516450000000     0.032890000000     0.103100000000     0          
O2       O      0.474040000000     0.033850000000     0.000000000000     0          
O3       O      0.517600000000     0.098730000000     0.078920000000     0          
O4       O      0.469050000000     0.055320000000     0.143480000000     0          
N1       N      0.504050000000     0.252020000000     0.382400000000     0          
N2       N      0.502930000000     0.204320000000     0.500000000000     0          
C1       C      0.502260000000     0.193480000000     0.358100000000     0          
C2       C      0.502870000000     0.183920000000     0.435400000000     0          
C3       C      0.526650000000     0.150190000000     0.191900000000     0          
H1       H      0.546800000000     0.156400000000     0.157700000000     0          
C4       C      0.499690000000     0.234150000000     0.253600000000     0          
H2       H      0.498100000000     0.220100000000     0.208900000000     0          
C5       C      0.495920000000     0.116620000000     0.187600000000     0          
C6       C      0.493600000000     0.087680000000     0.131400000000     0          
C7       C      0.467010000000     0.107790000000     0.238100000000     0          
H3       H      0.445500000000     0.084200000000     0.236300000000     0          
C8       C      0.502580000000     0.224870000000     0.333400000000     0          
C9       C      0.469910000000     0.133960000000     0.291300000000     0          
H4       H      0.449600000000     0.128300000000     0.324500000000     0          
C10      C      0.500480000000     0.167010000000     0.297500000000     0          
C11      C      0.528480000000     0.175690000000     0.247200000000     0          
H5       H      0.549700000000     0.199500000000     0.249400000000     0          
C12      C      0.503000000000     0.151410000000     0.460700000000     0          
H6       H      0.503100000000     0.133200000000     0.428000000000     0          
O5       O      0.405410000000     0.000000000000     0.091800000000     0          
O6       O      0.461480000000     0.000000000000     0.230900000000     0          
Cl1      Cl     0.577040000000     0.288520000000     0.500000000000     0          
Zr1J     Zr     0.542025000000     0.000000000000     0.897340000000     0          
Zr1C     Zr     0.542025000000     0.000000000000     0.102660000000     0          
Zr1F     Zr     0.457975000000     0.000000000000     0.897340000000     0          
Zr1A     Zr     0.457975000000     0.457970000000     0.102660000000     0          
Zr1K     Zr     0.457975000000     0.457970000000     0.897340000000     0          
Zr2K     Zr     0.533821000000     0.466178000000     0.000000000000     0          
O1J      O      0.516440000000     0.032890000000     0.896900000000     0          
O1C      O      0.483550000000     0.967110000000     0.103100000000     0          
O1F      O      0.483560000000     0.967110000000     0.896900000000     0          
O2J      O      0.559810000000     0.033850000000     0.000000000000     0          
O2F      O      0.440190000000     0.966150000000     0.000000000000     0          
O2C      O      0.525960000000     0.966150000000     0.000000000000     0          
O3S      O      0.517600000000     0.418870000000     0.078920000000     0          
O3K      O      0.517600000000     0.418870000000     0.921080000000     0          
O3O      O      0.517600000000     0.098730000000     0.921080000000     0          
O3J      O      0.581130000000     0.098730000000     0.921080000000     0          
O3R      O      0.581130000000     0.098730000000     0.078920000000     0          
O4S      O      0.469050000000     0.413730000000     0.143480000000     0          
O4K      O      0.469050000000     0.413730000000     0.856520000000     0          
O4O      O      0.469050000000     0.055320000000     0.856520000000     0          
O4V      O      0.413730000000     0.944680000000     0.143480000000     0          
O4J      O      0.586270000000     0.055320000000     0.856520000000     0          
O4L      O      0.530950000000     0.944680000000     0.856520000000     0          
N1O      N      0.504050000000     0.252020000000     0.617600000000     0          
N2K      N      0.502930000000     0.298610000000     0.500000000000     0          
C1O      C      0.502260000000     0.193480000000     0.641900000000     0          
C1K      C      0.502260000000     0.308780000000     0.641900000000     0          
C1S      C      0.502260000000     0.308780000000     0.358100000000     0          
C2O      C      0.502870000000     0.183920000000     0.564600000000     0          
C2K      C      0.502870000000     0.318950000000     0.564600000000     0          
C2S      C      0.502870000000     0.318950000000     0.435400000000     0          
C3S      C      0.526650000000     0.376460000000     0.191900000000     0          
C3K      C      0.526650000000     0.376460000000     0.808100000000     0          
C3O      C      0.526650000000     0.150190000000     0.808100000000     0          
H1S      H      0.546800000000     0.390400000000     0.157700000000     0          
H1K      H      0.546800000000     0.390400000000     0.842300000000     0          
H1O      H      0.546800000000     0.156400000000     0.842300000000     0          
C4S      C      0.499690000000     0.265540000000     0.253600000000     0          
C4K      C      0.499690000000     0.265540000000     0.746400000000     0          
C4O      C      0.499690000000     0.234150000000     0.746400000000     0          
H2S      H      0.498100000000     0.278000000000     0.208900000000     0          
H2O      H      0.498100000000     0.220100000000     0.791100000000     0          
H2K      H      0.498100000000     0.278000000000     0.791100000000     0          
C5S      C      0.495920000000     0.379300000000     0.187600000000     0          
C5K      C      0.495920000000     0.379300000000     0.812400000000     0          
C5O      C      0.495920000000     0.116620000000     0.812400000000     0          
C6S      C      0.493600000000     0.405920000000     0.131400000000     0          
C6K      C      0.493600000000     0.405920000000     0.868600000000     0          
C6O      C      0.493600000000     0.087680000000     0.868600000000     0          
C7S      C      0.467010000000     0.359220000000     0.238100000000     0          
C7K      C      0.467010000000     0.359220000000     0.761900000000     0          
C7O      C      0.467010000000     0.107790000000     0.761900000000     0          
H3S      H      0.445500000000     0.361300000000     0.236300000000     0          
H3K      H      0.445500000000     0.361300000000     0.763700000000     0          
H3O      H      0.445500000000     0.084200000000     0.763700000000     0          
C8O      C      0.502580000000     0.224870000000     0.666600000000     0          
C8K      C      0.502580000000     0.277710000000     0.666600000000     0          
C8S      C      0.502580000000     0.277710000000     0.333400000000     0          
C9S      C      0.469910000000     0.335950000000     0.291300000000     0          
C9K      C      0.469910000000     0.335950000000     0.708700000000     0          
C9O      C      0.469910000000     0.133960000000     0.708700000000     0          
H4S      H      0.449600000000     0.321300000000     0.324500000000     0          
H4K      H      0.449600000000     0.321300000000     0.675500000000     0          
H4O      H      0.449600000000     0.128300000000     0.675500000000     0          
C10S     C      0.500480000000     0.333470000000     0.297500000000     0          
C10K     C      0.500480000000     0.333470000000     0.702500000000     0          
C10O     C      0.500480000000     0.167010000000     0.702500000000     0          
C11S     C      0.528480000000     0.352790000000     0.247200000000     0          
C11K     C      0.528480000000     0.352790000000     0.752800000000     0          
C11O     C      0.528480000000     0.175690000000     0.752800000000     0          
H5S      H      0.549700000000     0.350200000000     0.249400000000     0          
H5K      H      0.549700000000     0.350200000000     0.750600000000     0          
H5O      H      0.549700000000     0.199500000000     0.750600000000     0          
C12S     C      0.503000000000     0.351590000000     0.460700000000     0          
C12K     C      0.503000000000     0.351590000000     0.539300000000     0          
C12O     C      0.503000000000     0.151410000000     0.539300000000     0          
H6K      H      0.503100000000     0.369900000000     0.572000000000     0          
H6S      H      0.503100000000     0.369900000000     0.428000000000     0          
H6O      H      0.503100000000     0.133200000000     0.572000000000     0          
O5J      O      0.594590000000     0.000000000000     0.908200000000     0          
O6J      O      0.538520000000     0.000000000000     0.769100000000     0          
Zr2      Zr     0.466178000000     0.533821000000     0.000000000000     0          
Fe1      Fe     0.256000000000     0.512000000000     0.500000000000     0          
O1       O      0.483560000000     0.516450000000     0.103100000000     0          
O2       O      0.440190000000     0.474040000000     0.000000000000     0          
O3       O      0.418870000000     0.517600000000     0.078920000000     0          
O4       O      0.413730000000     0.469050000000     0.143480000000     0          
N1       N      0.252030000000     0.504050000000     0.382400000000     0          
N2       N      0.298610000000     0.502930000000     0.500000000000     0          
C1       C      0.308780000000     0.502260000000     0.358100000000     0          
C2       C      0.318950000000     0.502870000000     0.435400000000     0          
C3       C      0.376460000000     0.526650000000     0.191900000000     0          
H1       H      0.390400000000     0.546800000000     0.157700000000     0          
C4       C      0.265540000000     0.499690000000     0.253600000000     0          
H2       H      0.278000000000     0.498100000000     0.208900000000     0          
C5       C      0.379300000000     0.495920000000     0.187600000000     0          
C6       C      0.405920000000     0.493600000000     0.131400000000     0          
C7       C      0.359220000000     0.467010000000     0.238100000000     0          
H3       H      0.361300000000     0.445500000000     0.236300000000     0          
C8       C      0.277710000000     0.502580000000     0.333400000000     0          
C9       C      0.335950000000     0.469910000000     0.291300000000     0          
H4       H      0.321300000000     0.449600000000     0.324500000000     0          
C10      C      0.333470000000     0.500480000000     0.297500000000     0          
C11      C      0.352790000000     0.528480000000     0.247200000000     0          
H5       H      0.350200000000     0.549700000000     0.249400000000     0          
C12      C      0.351590000000     0.503000000000     0.460700000000     0          
H6       H      0.369900000000     0.503100000000     0.428000000000     0          
O5       O      0.405410000000     0.405410000000     0.091800000000     0          
O6       O      0.461480000000     0.461480000000     0.230900000000     0          
Cl1      Cl     0.288520000000     0.577040000000     0.500000000000     0          
Zr1J     Zr     0.542025000000     0.542025000000     0.897340000000     0          
Zr1C     Zr     0.542025000000     0.542025000000     0.102660000000     0          
Zr1A     Zr     0.000005000000     0.457975000000     0.102660000000     0          
Zr1K     Zr     0.000005000000     0.457975000000     0.897340000000     0          
Zr2K     Zr     0.067643000000     0.533821000000     0.000000000000     0          
O1J      O      0.483550000000     0.516440000000     0.896900000000     0          
O1C      O      0.516440000000     0.483550000000     0.103100000000     0          
O1F      O      0.516450000000     0.483560000000     0.896900000000     0          
O2J      O      0.525960000000     0.559810000000     0.000000000000     0          
O2F      O      0.474040000000     0.440190000000     0.000000000000     0          
O2C      O      0.559810000000     0.525960000000     0.000000000000     0          
O3S      O      0.098730000000     0.517600000000     0.078920000000     0          
O3K      O      0.098730000000     0.517600000000     0.921080000000     0          
O3O      O      0.418870000000     0.517600000000     0.921080000000     0          
O3J      O      0.482400000000     0.581130000000     0.921080000000     0          
O3R      O      0.482400000000     0.581130000000     0.078920000000     0          
O4S      O      0.055320000000     0.469050000000     0.143480000000     0          
O4K      O      0.055320000000     0.469050000000     0.856520000000     0          
O4O      O      0.413730000000     0.469050000000     0.856520000000     0          
O4J      O      0.530950000000     0.586270000000     0.856520000000     0          
O4L      O      0.586270000000     0.530950000000     0.856520000000     0          
N1O      N      0.252030000000     0.504050000000     0.617600000000     0          
N2K      N      0.204320000000     0.502930000000     0.500000000000     0          
C1O      C      0.308780000000     0.502260000000     0.641900000000     0          
C1K      C      0.193480000000     0.502260000000     0.641900000000     0          
C1S      C      0.193480000000     0.502260000000     0.358100000000     0          
C2O      C      0.318950000000     0.502870000000     0.564600000000     0          
C2K      C      0.183920000000     0.502870000000     0.564600000000     0          
C2S      C      0.183920000000     0.502870000000     0.435400000000     0          
C3S      C      0.150190000000     0.526650000000     0.191900000000     0          
C3K      C      0.150190000000     0.526650000000     0.808100000000     0          
C3O      C      0.376460000000     0.526650000000     0.808100000000     0          
H1S      H      0.156400000000     0.546800000000     0.157700000000     0          
H1K      H      0.156400000000     0.546800000000     0.842300000000     0          
H1O      H      0.390400000000     0.546800000000     0.842300000000     0          
C4S      C      0.234150000000     0.499690000000     0.253600000000     0          
C4K      C      0.234150000000     0.499690000000     0.746400000000     0          
C4O      C      0.265540000000     0.499690000000     0.746400000000     0          
H2S      H      0.220100000000     0.498100000000     0.208900000000     0          
H2O      H      0.278000000000     0.498100000000     0.791100000000     0          
H2K      H      0.220100000000     0.498100000000     0.791100000000     0          
C5S      C      0.116620000000     0.495920000000     0.187600000000     0          
C5K      C      0.116620000000     0.495920000000     0.812400000000     0          
C5O      C      0.379300000000     0.495920000000     0.812400000000     0          
C6S      C      0.087680000000     0.493600000000     0.131400000000     0          
C6K      C      0.087680000000     0.493600000000     0.868600000000     0          
C6O      C      0.405920000000     0.493600000000     0.868600000000     0          
C7S      C      0.107790000000     0.467010000000     0.238100000000     0          
C7K      C      0.107790000000     0.467010000000     0.761900000000     0          
C7O      C      0.359220000000     0.467010000000     0.761900000000     0          
H3S      H      0.084200000000     0.445500000000     0.236300000000     0          
H3K      H      0.084200000000     0.445500000000     0.763700000000     0          
H3O      H      0.361300000000     0.445500000000     0.763700000000     0          
C8O      C      0.277710000000     0.502580000000     0.666600000000     0          
C8K      C      0.224870000000     0.502580000000     0.666600000000     0          
C8S      C      0.224870000000     0.502580000000     0.333400000000     0          
C9S      C      0.133960000000     0.469910000000     0.291300000000     0          
C9K      C      0.133960000000     0.469910000000     0.708700000000     0          
C9O      C      0.335950000000     0.469910000000     0.708700000000     0          
H4S      H      0.128300000000     0.449600000000     0.324500000000     0          
H4K      H      0.128300000000     0.449600000000     0.675500000000     0          
H4O      H      0.321300000000     0.449600000000     0.675500000000     0          
C10S     C      0.167010000000     0.500480000000     0.297500000000     0          
C10K     C      0.167010000000     0.500480000000     0.702500000000     0          
C10O     C      0.333470000000     0.500480000000     0.702500000000     0          
C11S     C      0.175690000000     0.528480000000     0.247200000000     0          
C11K     C      0.175690000000     0.528480000000     0.752800000000     0          
C11O     C      0.352790000000     0.528480000000     0.752800000000     0          
H5S      H      0.199500000000     0.549700000000     0.249400000000     0          
H5K      H      0.199500000000     0.549700000000     0.750600000000     0          
H5O      H      0.350200000000     0.549700000000     0.750600000000     0          
C12S     C      0.151410000000     0.503000000000     0.460700000000     0          
C12K     C      0.151410000000     0.503000000000     0.539300000000     0          
C12O     C      0.351590000000     0.503000000000     0.539300000000     0          
H6K      H      0.133200000000     0.503100000000     0.572000000000     0          
H6S      H      0.133200000000     0.503100000000     0.428000000000     0          
H6O      H      0.369900000000     0.503100000000     0.572000000000     0          
O5J      O      0.594590000000     0.594590000000     0.908200000000     0          
O6J      O      0.538520000000     0.538520000000     0.769100000000     0          
Zr2      Zr     0.932357000000     0.466178000000     0.000000000000     0          
Fe1      Fe     0.744000000000     0.256000000000     0.500000000000     0          
O1       O      0.967110000000     0.483560000000     0.103100000000     0          
O2       O      0.966150000000     0.440190000000     0.000000000000     0          
O3       O      0.901270000000     0.418870000000     0.078920000000     0          
O4       O      0.944680000000     0.413730000000     0.143480000000     0          
N1       N      0.747980000000     0.252030000000     0.382400000000     0          
N2       N      0.795680000000     0.298610000000     0.500000000000     0          
C1       C      0.806520000000     0.308780000000     0.358100000000     0          
C2       C      0.816080000000     0.318950000000     0.435400000000     0          
C3       C      0.849810000000     0.376460000000     0.191900000000     0          
H1       H      0.843600000000     0.390400000000     0.157700000000     0          
C4       C      0.765850000000     0.265540000000     0.253600000000     0          
H2       H      0.779900000000     0.278000000000     0.208900000000     0          
C5       C      0.883380000000     0.379300000000     0.187600000000     0          
C6       C      0.912320000000     0.405920000000     0.131400000000     0          
C7       C      0.892210000000     0.359220000000     0.238100000000     0          
H3       H      0.915800000000     0.361300000000     0.236300000000     0          
C8       C      0.775130000000     0.277710000000     0.333400000000     0          
C9       C      0.866040000000     0.335950000000     0.291300000000     0          
H4       H      0.871700000000     0.321300000000     0.324500000000     0          
C10      C      0.832990000000     0.333470000000     0.297500000000     0          
C11      C      0.824310000000     0.352790000000     0.247200000000     0          
H5       H      0.800500000000     0.350200000000     0.249400000000     0          
C12      C      0.848590000000     0.351590000000     0.460700000000     0          
H6       H      0.866800000000     0.369900000000     0.428000000000     0          
O5       O      0.000000000000     0.405410000000     0.091800000000     0          
O6       O      0.000000000000     0.461480000000     0.230900000000     0          
Cl1      Cl     0.711480000000     0.288520000000     0.500000000000     0          
Zr1J     Zr     0.000000000000     0.542025000000     0.897340000000     0          
Zr1C     Zr     0.000000000000     0.542025000000     0.102660000000     0          
O1J      O      0.967110000000     0.483550000000     0.896900000000     0          
O1C      O      0.032890000000     0.516440000000     0.103100000000     0          
O1F      O      0.032890000000     0.516450000000     0.896900000000     0          
O2J      O      0.966150000000     0.525960000000     0.000000000000     0          
O2F      O      0.033850000000     0.474040000000     0.000000000000     0          
O2C      O      0.033850000000     0.559810000000     0.000000000000     0          
O3O      O      0.901270000000     0.418870000000     0.921080000000     0          
O3J      O      0.901270000000     0.482400000000     0.921080000000     0          
O3R      O      0.901270000000     0.482400000000     0.078920000000     0          
O4S      O      0.586270000000     0.055320000000     0.143480000000     0          
O4O      O      0.944680000000     0.413730000000     0.856520000000     0          
O4J      O      0.944680000000     0.530950000000     0.856520000000     0          
O4L      O      0.055320000000     0.586270000000     0.856520000000     0          
N1O      N      0.747980000000     0.252030000000     0.617600000000     0          
N2K      N      0.701390000000     0.204320000000     0.500000000000     0          
C1O      C      0.806520000000     0.308780000000     0.641900000000     0          
C1K      C      0.691220000000     0.193480000000     0.641900000000     0          
C1S      C      0.691220000000     0.193480000000     0.358100000000     0          
C2O      C      0.816080000000     0.318950000000     0.564600000000     0          
C2K      C      0.681050000000     0.183920000000     0.564600000000     0          
C2S      C      0.681050000000     0.183920000000     0.435400000000     0          
C3S      C      0.623540000000     0.150190000000     0.191900000000     0          
C3K      C      0.623540000000     0.150190000000     0.808100000000     0          
C3O      C      0.849810000000     0.376460000000     0.808100000000     0          
H1S      H      0.609600000000     0.156400000000     0.157700000000     0          
H1K      H      0.609600000000     0.156400000000     0.842300000000     0          
H1O      H      0.843600000000     0.390400000000     0.842300000000     0          
C4S      C      0.734460000000     0.234150000000     0.253600000000     0          
C4K      C      0.734460000000     0.234150000000     0.746400000000     0          
C4O      C      0.765850000000     0.265540000000     0.746400000000     0          
H2S      H      0.722000000000     0.220100000000     0.208900000000     0          
H2O      H      0.779900000000     0.278000000000     0.791100000000     0          
H2K      H      0.722000000000     0.220100000000     0.791100000000     0          
C5S      C      0.620700000000     0.116620000000     0.187600000000     0          
C5K      C      0.620700000000     0.116620000000     0.812400000000     0          
C5O      C      0.883380000000     0.379300000000     0.812400000000     0          
C6S      C      0.594080000000     0.087680000000     0.131400000000     0          
C6K      C      0.594080000000     0.087680000000     0.868600000000     0          
C6O      C      0.912320000000     0.405920000000     0.868600000000     0          
C7S      C      0.640780000000     0.107790000000     0.238100000000     0          
C7K      C      0.640780000000     0.107790000000     0.761900000000     0          
C7O      C      0.892210000000     0.359220000000     0.761900000000     0          
H3S      H      0.638700000000     0.084200000000     0.236300000000     0          
H3K      H      0.638700000000     0.084200000000     0.763700000000     0          
H3O      H      0.915800000000     0.361300000000     0.763700000000     0          
C8O      C      0.775130000000     0.277710000000     0.666600000000     0          
C8K      C      0.722290000000     0.224870000000     0.666600000000     0          
C8S      C      0.722290000000     0.224870000000     0.333400000000     0          
C9S      C      0.664050000000     0.133960000000     0.291300000000     0          
C9K      C      0.664050000000     0.133960000000     0.708700000000     0          
C9O      C      0.866040000000     0.335950000000     0.708700000000     0          
H4S      H      0.678700000000     0.128300000000     0.324500000000     0          
H4K      H      0.678700000000     0.128300000000     0.675500000000     0          
H4O      H      0.871700000000     0.321300000000     0.675500000000     0          
C10S     C      0.666530000000     0.167010000000     0.297500000000     0          
C10K     C      0.666530000000     0.167010000000     0.702500000000     0          
C10O     C      0.832990000000     0.333470000000     0.702500000000     0          
C11S     C      0.647210000000     0.175690000000     0.247200000000     0          
C11K     C      0.647210000000     0.175690000000     0.752800000000     0          
C11O     C      0.824310000000     0.352790000000     0.752800000000     0          
H5S      H      0.649800000000     0.199500000000     0.249400000000     0          
H5K      H      0.649800000000     0.199500000000     0.750600000000     0          
H5O      H      0.800500000000     0.350200000000     0.750600000000     0          
C12S     C      0.648410000000     0.151410000000     0.460700000000     0          
C12K     C      0.648410000000     0.151410000000     0.539300000000     0          
C12O     C      0.848590000000     0.351590000000     0.539300000000     0          
H6K      H      0.630100000000     0.133200000000     0.572000000000     0          
H6S      H      0.630100000000     0.133200000000     0.428000000000     0          
H6O      H      0.866800000000     0.369900000000     0.572000000000     0          
O5J      O      0.000000000000     0.594590000000     0.908200000000     0          
O6J      O      0.000000000000     0.538520000000     0.769100000000     0          
Zr2      Zr     0.466179000000     0.932357000000     0.000000000000     0          
Fe1      Fe     0.488000000000     0.744000000000     0.500000000000     0          
O3       O      0.482400000000     0.901270000000     0.078920000000     0          
O4       O      0.530950000000     0.944680000000     0.143480000000     0          
N1       N      0.495950000000     0.747980000000     0.382400000000     0          
N2       N      0.497070000000     0.795680000000     0.500000000000     0          
C1       C      0.497740000000     0.806520000000     0.358100000000     0          
C2       C      0.497130000000     0.816080000000     0.435400000000     0          
C3       C      0.473350000000     0.849810000000     0.191900000000     0          
H1       H      0.453200000000     0.843600000000     0.157700000000     0          
C4       C      0.500310000000     0.765850000000     0.253600000000     0          
H2       H      0.501900000000     0.779900000000     0.208900000000     0          
C5       C      0.504080000000     0.883380000000     0.187600000000     0          
C6       C      0.506400000000     0.912320000000     0.131400000000     0          
C7       C      0.532990000000     0.892210000000     0.238100000000     0          
H3       H      0.554500000000     0.915800000000     0.236300000000     0          
C8       C      0.497420000000     0.775130000000     0.333400000000     0          
C9       C      0.530090000000     0.866040000000     0.291300000000     0          
H4       H      0.550400000000     0.871700000000     0.324500000000     0          
C10      C      0.499520000000     0.832990000000     0.297500000000     0          
C11      C      0.471520000000     0.824310000000     0.247200000000     0          
H5       H      0.450300000000     0.800500000000     0.249400000000     0          
C12      C      0.497000000000     0.848590000000     0.460700000000     0          
H6       H      0.496900000000     0.866800000000     0.428000000000     0          
O5       O      0.594590000000     0.000000000000     0.091800000000     0          
O6       O      0.538520000000     0.000000000000     0.230900000000     0          
Cl1      Cl     0.422960000000     0.711480000000     0.500000000000     0          
O3O      O      0.482400000000     0.901270000000     0.921080000000     0          
O3J      O      0.418870000000     0.901270000000     0.921080000000     0          
O3R      O      0.418870000000     0.901270000000     0.078920000000     0          
O4S      O      0.530950000000     0.586270000000     0.143480000000     0          
O4J      O      0.413730000000     0.944680000000     0.856520000000     0          
N1O      N      0.495950000000     0.747980000000     0.617600000000     0          
N2K      N      0.497070000000     0.701390000000     0.500000000000     0          
C1O      C      0.497740000000     0.806520000000     0.641900000000     0          
C1K      C      0.497740000000     0.691220000000     0.641900000000     0          
C1S      C      0.497740000000     0.691220000000     0.358100000000     0          
C2O      C      0.497130000000     0.816080000000     0.564600000000     0          
C2K      C      0.497130000000     0.681050000000     0.564600000000     0          
C2S      C      0.497130000000     0.681050000000     0.435400000000     0          
C3S      C      0.473350000000     0.623540000000     0.191900000000     0          
C3K      C      0.473350000000     0.623540000000     0.808100000000     0          
C3O      C      0.473350000000     0.849810000000     0.808100000000     0          
H1S      H      0.453200000000     0.609600000000     0.157700000000     0          
H1K      H      0.453200000000     0.609600000000     0.842300000000     0          
H1O      H      0.453200000000     0.843600000000     0.842300000000     0          
C4S      C      0.500310000000     0.734460000000     0.253600000000     0          
C4K      C      0.500310000000     0.734460000000     0.746400000000     0          
C4O      C      0.500310000000     0.765850000000     0.746400000000     0          
H2S      H      0.501900000000     0.722000000000     0.208900000000     0          
H2O      H      0.501900000000     0.779900000000     0.791100000000     0          
H2K      H      0.501900000000     0.722000000000     0.791100000000     0          
C5S      C      0.504080000000     0.620700000000     0.187600000000     0          
C5K      C      0.504080000000     0.620700000000     0.812400000000     0          
C5O      C      0.504080000000     0.883380000000     0.812400000000     0          
C6S      C      0.506400000000     0.594080000000     0.131400000000     0          
C6K      C      0.506400000000     0.594080000000     0.868600000000     0          
C6O      C      0.506400000000     0.912320000000     0.868600000000     0          
C7S      C      0.532990000000     0.640780000000     0.238100000000     0          
C7K      C      0.532990000000     0.640780000000     0.761900000000     0          
C7O      C      0.532990000000     0.892210000000     0.761900000000     0          
H3S      H      0.554500000000     0.638700000000     0.236300000000     0          
H3K      H      0.554500000000     0.638700000000     0.763700000000     0          
H3O      H      0.554500000000     0.915800000000     0.763700000000     0          
C8O      C      0.497420000000     0.775130000000     0.666600000000     0          
C8K      C      0.497420000000     0.722290000000     0.666600000000     0          
C8S      C      0.497420000000     0.722290000000     0.333400000000     0          
C9S      C      0.530090000000     0.664050000000     0.291300000000     0          
C9K      C      0.530090000000     0.664050000000     0.708700000000     0          
C9O      C      0.530090000000     0.866040000000     0.708700000000     0          
H4S      H      0.550400000000     0.678700000000     0.324500000000     0          
H4K      H      0.550400000000     0.678700000000     0.675500000000     0          
H4O      H      0.550400000000     0.871700000000     0.675500000000     0          
C10S     C      0.499520000000     0.666530000000     0.297500000000     0          
C10K     C      0.499520000000     0.666530000000     0.702500000000     0          
C10O     C      0.499520000000     0.832990000000     0.702500000000     0          
C11S     C      0.471520000000     0.647210000000     0.247200000000     0          
C11K     C      0.471520000000     0.647210000000     0.752800000000     0          
C11O     C      0.471520000000     0.824310000000     0.752800000000     0          
H5S      H      0.450300000000     0.649800000000     0.249400000000     0          
H5K      H      0.450300000000     0.649800000000     0.750600000000     0          
H5O      H      0.450300000000     0.800500000000     0.750600000000     0          
C12S     C      0.497000000000     0.648410000000     0.460700000000     0          
C12K     C      0.497000000000     0.648410000000     0.539300000000     0          
C12O     C      0.497000000000     0.848590000000     0.539300000000     0          
H6K      H      0.496900000000     0.630100000000     0.572000000000     0          
H6S      H      0.496900000000     0.630100000000     0.428000000000     0          
H6O      H      0.496900000000     0.866800000000     0.572000000000     0          
O5J      O      0.405410000000     0.000000000000     0.908200000000     0          
O6J      O      0.461480000000     0.000000000000     0.769100000000     0          
Fe1      Fe     0.744000000000     0.488000000000     0.500000000000     0          
O3       O      0.581130000000     0.482400000000     0.078920000000     0          
O4       O      0.586270000000     0.530950000000     0.143480000000     0          
N1       N      0.747970000000     0.495950000000     0.382400000000     0          
N2       N      0.701390000000     0.497070000000     0.500000000000     0          
C1       C      0.691220000000     0.497740000000     0.358100000000     0          
C2       C      0.681050000000     0.497130000000     0.435400000000     0          
C3       C      0.623540000000     0.473350000000     0.191900000000     0          
H1       H      0.609600000000     0.453200000000     0.157700000000     0          
C4       C      0.734460000000     0.500310000000     0.253600000000     0          
H2       H      0.722000000000     0.501900000000     0.208900000000     0          
C5       C      0.620700000000     0.504080000000     0.187600000000     0          
C6       C      0.594080000000     0.506400000000     0.131400000000     0          
C7       C      0.640780000000     0.532990000000     0.238100000000     0          
H3       H      0.638700000000     0.554500000000     0.236300000000     0          
C8       C      0.722290000000     0.497420000000     0.333400000000     0          
C9       C      0.664050000000     0.530090000000     0.291300000000     0          
H4       H      0.678700000000     0.550400000000     0.324500000000     0          
C10      C      0.666530000000     0.499520000000     0.297500000000     0          
C11      C      0.647210000000     0.471520000000     0.247200000000     0          
H5       H      0.649800000000     0.450300000000     0.249400000000     0          
C12      C      0.648410000000     0.497000000000     0.460700000000     0          
H6       H      0.630100000000     0.496900000000     0.428000000000     0          
O5       O      0.594590000000     0.594590000000     0.091800000000     0          
O6       O      0.538520000000     0.538520000000     0.230900000000     0          
Cl1      Cl     0.711480000000     0.422960000000     0.500000000000     0          
O3O      O      0.581130000000     0.482400000000     0.921080000000     0          
O4S      O      0.944680000000     0.530950000000     0.143480000000     0          
N1O      N      0.747970000000     0.495950000000     0.617600000000     0          
N2K      N      0.795680000000     0.497070000000     0.500000000000     0          
C1O      C      0.691220000000     0.497740000000     0.641900000000     0          
C1K      C      0.806520000000     0.497740000000     0.641900000000     0          
C1S      C      0.806520000000     0.497740000000     0.358100000000     0          
C2O      C      0.681050000000     0.497130000000     0.564600000000     0          
C2K      C      0.816080000000     0.497130000000     0.564600000000     0          
C2S      C      0.816080000000     0.497130000000     0.435400000000     0          
C3S      C      0.849810000000     0.473350000000     0.191900000000     0          
C3K      C      0.849810000000     0.473350000000     0.808100000000     0          
C3O      C      0.623540000000     0.473350000000     0.808100000000     0          
H1S      H      0.843600000000     0.453200000000     0.157700000000     0          
H1K      H      0.843600000000     0.453200000000     0.842300000000     0          
H1O      H      0.609600000000     0.453200000000     0.842300000000     0          
C4S      C      0.765850000000     0.500310000000     0.253600000000     0          
C4K      C      0.765850000000     0.500310000000     0.746400000000     0          
C4O      C      0.734460000000     0.500310000000     0.746400000000     0          
H2S      H      0.779900000000     0.501900000000     0.208900000000     0          
H2O      H      0.722000000000     0.501900000000     0.791100000000     0          
H2K      H      0.779900000000     0.501900000000     0.791100000000     0          
C5S      C      0.883380000000     0.504080000000     0.187600000000     0          
C5K      C      0.883380000000     0.504080000000     0.812400000000     0          
C5O      C      0.620700000000     0.504080000000     0.812400000000     0          
C6S      C      0.912320000000     0.506400000000     0.131400000000     0          
C6K      C      0.912320000000     0.506400000000     0.868600000000     0          
C6O      C      0.594080000000     0.506400000000     0.868600000000     0          
C7S      C      0.892210000000     0.532990000000     0.238100000000     0          
C7K      C      0.892210000000     0.532990000000     0.761900000000     0          
C7O      C      0.640780000000     0.532990000000     0.761900000000     0          
H3S      H      0.915800000000     0.554500000000     0.236300000000     0          
H3K      H      0.915800000000     0.554500000000     0.763700000000     0          
H3O      H      0.638700000000     0.554500000000     0.763700000000     0          
C8O      C      0.722290000000     0.497420000000     0.666600000000     0          
C8K      C      0.775130000000     0.497420000000     0.666600000000     0          
C8S      C      0.775130000000     0.497420000000     0.333400000000     0          
C9S      C      0.866040000000     0.530090000000     0.291300000000     0          
C9K      C      0.866040000000     0.530090000000     0.708700000000     0          
C9O      C      0.664050000000     0.530090000000     0.708700000000     0          
H4S      H      0.871700000000     0.550400000000     0.324500000000     0          
H4K      H      0.871700000000     0.550400000000     0.675500000000     0          
H4O      H      0.678700000000     0.550400000000     0.675500000000     0          
C10S     C      0.832990000000     0.499520000000     0.297500000000     0          
C10K     C      0.832990000000     0.499520000000     0.702500000000     0          
C10O     C      0.666530000000     0.499520000000     0.702500000000     0          
C11S     C      0.824310000000     0.471520000000     0.247200000000     0          
C11K     C      0.824310000000     0.471520000000     0.752800000000     0          
C11O     C      0.647210000000     0.471520000000     0.752800000000     0          
H5S      H      0.800500000000     0.450300000000     0.249400000000     0          
H5K      H      0.800500000000     0.450300000000     0.750600000000     0          
H5O      H      0.649800000000     0.450300000000     0.750600000000     0          
C12S     C      0.848590000000     0.497000000000     0.460700000000     0          
C12K     C      0.848590000000     0.497000000000     0.539300000000     0          
C12O     C      0.648410000000     0.497000000000     0.539300000000     0          
H6K      H      0.866800000000     0.496900000000     0.572000000000     0          
H6S      H      0.866800000000     0.496900000000     0.428000000000     0          
H6O      H      0.630100000000     0.496900000000     0.572000000000     0          
O5J      O      0.405410000000     0.405410000000     0.908200000000     0          
O6J      O      0.461480000000     0.461480000000     0.769100000000     0          
Fe1      Fe     0.256000000000     0.744000000000     0.500000000000     0          
O3       O      0.098730000000     0.581130000000     0.078920000000     0          
O4       O      0.055320000000     0.586270000000     0.143480000000     0          
N1       N      0.252020000000     0.747970000000     0.382400000000     0          
N2       N      0.204320000000     0.701390000000     0.500000000000     0          
C1       C      0.193480000000     0.691220000000     0.358100000000     0          
C2       C      0.183920000000     0.681050000000     0.435400000000     0          
C3       C      0.150190000000     0.623540000000     0.191900000000     0          
H1       H      0.156400000000     0.609600000000     0.157700000000     0          
C4       C      0.234150000000     0.734460000000     0.253600000000     0          
H2       H      0.220100000000     0.722000000000     0.208900000000     0          
C5       C      0.116620000000     0.620700000000     0.187600000000     0          
C6       C      0.087680000000     0.594080000000     0.131400000000     0          
C7       C      0.107790000000     0.640780000000     0.238100000000     0          
H3       H      0.084200000000     0.638700000000     0.236300000000     0          
C8       C      0.224870000000     0.722290000000     0.333400000000     0          
C9       C      0.133960000000     0.664050000000     0.291300000000     0          
H4       H      0.128300000000     0.678700000000     0.324500000000     0          
C10      C      0.167010000000     0.666530000000     0.297500000000     0          
C11      C      0.175690000000     0.647210000000     0.247200000000     0          
H5       H      0.199500000000     0.649800000000     0.249400000000     0          
C12      C      0.151410000000     0.648410000000     0.460700000000     0          
H6       H      0.133200000000     0.630100000000     0.428000000000     0          
O5       O      0.000000000000     0.594590000000     0.091800000000     0          
O6       O      0.000000000000     0.538520000000     0.230900000000     0          
Cl1      Cl     0.288520000000     0.711480000000     0.500000000000     0          
O3O      O      0.098730000000     0.581130000000     0.921080000000     0          
N1O      N      0.252020000000     0.747970000000     0.617600000000     0          
N2K      N      0.298610000000     0.795680000000     0.500000000000     0          
C1O      C      0.193480000000     0.691220000000     0.641900000000     0          
C1K      C      0.308780000000     0.806520000000     0.641900000000     0          
C1S      C      0.308780000000     0.806520000000     0.358100000000     0          
C2O      C      0.183920000000     0.681050000000     0.564600000000     0          
C2K      C      0.318950000000     0.816080000000     0.564600000000     0          
C2S      C      0.318950000000     0.816080000000     0.435400000000     0          
C3S      C      0.376460000000     0.849810000000     0.191900000000     0          
C3K      C      0.376460000000     0.849810000000     0.808100000000     0          
C3O      C      0.150190000000     0.623540000000     0.808100000000     0          
H1S      H      0.390400000000     0.843600000000     0.157700000000     0          
H1K      H      0.390400000000     0.843600000000     0.842300000000     0          
H1O      H      0.156400000000     0.609600000000     0.842300000000     0          
C4S      C      0.265540000000     0.765850000000     0.253600000000     0          
C4K      C      0.265540000000     0.765850000000     0.746400000000     0          
C4O      C      0.234150000000     0.734460000000     0.746400000000     0          
H2S      H      0.278000000000     0.779900000000     0.208900000000     0          
H2O      H      0.220100000000     0.722000000000     0.791100000000     0          
H2K      H      0.278000000000     0.779900000000     0.791100000000     0          
C5S      C      0.379300000000     0.883380000000     0.187600000000     0          
C5K      C      0.379300000000     0.883380000000     0.812400000000     0          
C5O      C      0.116620000000     0.620700000000     0.812400000000     0          
C6S      C      0.405920000000     0.912320000000     0.131400000000     0          
C6K      C      0.405920000000     0.912320000000     0.868600000000     0          
C6O      C      0.087680000000     0.594080000000     0.868600000000     0          
C7S      C      0.359220000000     0.892210000000     0.238100000000     0          
C7K      C      0.359220000000     0.892210000000     0.761900000000     0          
C7O      C      0.107790000000     0.640780000000     0.761900000000     0          
H3S      H      0.361300000000     0.915800000000     0.236300000000     0          
H3K      H      0.361300000000     0.915800000000     0.763700000000     0          
H3O      H      0.084200000000     0.638700000000     0.763700000000     0          
C8O      C      0.224870000000     0.722290000000     0.666600000000     0          
C8K      C      0.277710000000     0.775130000000     0.666600000000     0          
C8S      C      0.277710000000     0.775130000000     0.333400000000     0          
C9S      C      0.335950000000     0.866040000000     0.291300000000     0          
C9K      C      0.335950000000     0.866040000000     0.708700000000     0          
C9O      C      0.133960000000     0.664050000000     0.708700000000     0          
H4S      H      0.321300000000     0.871700000000     0.324500000000     0          
H4K      H      0.321300000000     0.871700000000     0.675500000000     0          
H4O      H      0.128300000000     0.678700000000     0.675500000000     0          
C10S     C      0.333470000000     0.832990000000     0.297500000000     0          
C10K     C      0.333470000000     0.832990000000     0.702500000000     0          
C10O     C      0.167010000000     0.666530000000     0.702500000000     0          
C11S     C      0.352790000000     0.824310000000     0.247200000000     0          
C11K     C      0.352790000000     0.824310000000     0.752800000000     0          
C11O     C      0.175690000000     0.647210000000     0.752800000000     0          
H5S      H      0.350200000000     0.800500000000     0.249400000000     0          
H5K      H      0.350200000000     0.800500000000     0.750600000000     0          
H5O      H      0.199500000000     0.649800000000     0.750600000000     0          
C12S     C      0.351590000000     0.848590000000     0.460700000000     0          
C12K     C      0.351590000000     0.848590000000     0.539300000000     0          
C12O     C      0.151410000000     0.648410000000     0.539300000000     0          
H6K      H      0.369900000000     0.866800000000     0.572000000000     0          
H6S      H      0.369900000000     0.866800000000     0.428000000000     0          
H6O      H      0.133200000000     0.630100000000     0.572000000000     0          
O5J      O      0.000000000000     0.405410000000     0.908200000000     0          
O6J      O      0.000000000000     0.461480000000     0.769100000000     0          


