data_BEQHIR

_audit_creation_method RASPA-1.0
_audit_creation_date 2020-4-3
_audit_author_name 'Rocio Bueno-Perez'

_cell_length_a    38.2762
_cell_length_b    38.2762
_cell_length_c    38.2762
_cell_angle_alpha 90
_cell_angle_beta  90
_cell_angle_gamma 90
_cell_volume      56077.2

_symmetry_cell_setting          cubic
_symmetry_space_group_name_Hall 'P 1'
_symmetry_space_group_name_H-M  'P 1'
_symmetry_Int_Tables_number     1

_symmetry_equiv_pos_as_xyz 'x,y,z'

loop_
_atom_site_label
_atom_site_type_symbol
_atom_site_fract_x
_atom_site_fract_y
_atom_site_fract_z
_atom_site_charge
Zr1      Zr     0.285650000000     0.285650000000     0.221100000000     0          
Ni1      Ni     0.250000000000     0.500000000000     0.000000000000     0          
O1       O      0.282800000000     0.282800000000     0.282800000000     0          
N1       N      0.248160000000     0.500000000000     0.050220000000     0          
O2       O      0.276860000000     0.327860000000     0.185430000000     0          
O3       O      0.315920000000     0.246130000000     0.246130000000     0          
C1       C      0.250000000000     0.409720000000     0.090280000000     0          
C2       C      0.250000000000     0.437210000000     0.062790000000     0          
C3       C      0.250000000000     0.331290000000     0.168710000000     0          
C4       C      0.244460000000     0.471510000000     0.072290000000     0          
C5       C      0.238830000000     0.483060000000     0.107100000000     0          
H1       H      0.235600000000     0.468500000000     0.126900000000     0          
C6       C      0.276900000000     0.406820000000     0.113170000000     0          
H2       H      0.295400000000     0.423300000000     0.112700000000     0          
C7       C      0.277290000000     0.380060000000     0.136950000000     0          
H3       H      0.297400000000     0.376300000000     0.151000000000     0          
C8       C      0.250000000000     0.359750000000     0.140250000000     0          
O4       O      0.298990000000     0.346460000000     0.250410000000     0          
C9       C      0.287360000000     0.360430000000     0.287360000000     0          
C10      C      0.306470000000     0.414270000000     0.263400000000     0          
H4       H      0.311100000000     0.404100000000     0.241300000000     0          
C11      C      0.290770000000     0.396340000000     0.290770000000     0          
N2       N      0.305700000000     0.458390000000     0.305700000000     0          
C12      C      0.314790000000     0.448880000000     0.271700000000     0          
H5       H      0.325600000000     0.464400000000     0.255700000000     0          
Zr2?     Zr     0.299840000000     0.299840000000     0.235480000000     0          
N1SA     N      0.251840000000     0.449780000000     0.000000000000     0          
O2SA     O      0.223140000000     0.314570000000     0.172140000000     0          
C4SA     C      0.255540000000     0.427710000000     0.028490000000     0          
C5SA     C      0.261170000000     0.392900000000     0.016940000000     0          
H1SA     H      0.264400000000     0.373100000000     0.031500000000     0          
C6SA     C      0.223100000000     0.386830000000     0.093180000000     0          
H2SA     H      0.204600000000     0.387300000000     0.076700000000     0          
C7SA     C      0.222710000000     0.363050000000     0.119940000000     0          
H3SA     H      0.202600000000     0.349000000000     0.123700000000     0          
O2DB     O      0.276860000000     0.672140000000     0.185430000000     0          
C1DB     C      0.250000000000     0.590280000000     0.090280000000     0          
C2DB     C      0.250000000000     0.562790000000     0.062790000000     0          
C3DB     C      0.250000000000     0.668710000000     0.168710000000     0          
C4DB     C      0.244460000000     0.528490000000     0.072290000000     0          
C5DB     C      0.238830000000     0.516940000000     0.107100000000     0          
H1DB     H      0.235600000000     0.531500000000     0.126900000000     0          
C6DB     C      0.276900000000     0.593180000000     0.113170000000     0          
H2DB     H      0.295400000000     0.576700000000     0.112700000000     0          
C7DB     C      0.277290000000     0.619940000000     0.136950000000     0          
H3DB     H      0.297400000000     0.623700000000     0.151000000000     0          
C8DB     C      0.250000000000     0.640250000000     0.140250000000     0          
N1RA     N      0.251840000000     0.550220000000     0.000000000000     0          
O2XB     O      0.223140000000     0.685430000000     0.172140000000     0          
C4XB     C      0.255540000000     0.572290000000     0.028490000000     0          
C5XB     C      0.261170000000     0.607100000000     0.016940000000     0          
H1XB     H      0.264400000000     0.626900000000     0.031500000000     0          
C6XB     C      0.223100000000     0.613170000000     0.093180000000     0          
H2XB     H      0.204600000000     0.612700000000     0.076700000000     0          
C7XB     C      0.222710000000     0.636950000000     0.119940000000     0          
H3XB     H      0.202600000000     0.651000000000     0.123700000000     0          
O2ZB     O      0.223140000000     0.314570000000     0.827860000000     0          
C1XA     C      0.250000000000     0.409720000000     0.909720000000     0          
C2XA     C      0.250000000000     0.437210000000     0.937210000000     0          
C3XA     C      0.250000000000     0.331290000000     0.831290000000     0          
C4ZB     C      0.255540000000     0.427710000000     0.971510000000     0          
C5ZB     C      0.261170000000     0.392900000000     0.983060000000     0          
H1ZB     H      0.264400000000     0.373100000000     0.968500000000     0          
C6ZB     C      0.223100000000     0.386830000000     0.906820000000     0          
H2ZB     H      0.204600000000     0.387300000000     0.923300000000     0          
C7ZB     C      0.222710000000     0.363050000000     0.880060000000     0          
H3ZB     H      0.202600000000     0.349000000000     0.876300000000     0          
C8XA     C      0.250000000000     0.359750000000     0.859750000000     0          
O2RA     O      0.223140000000     0.685430000000     0.827860000000     0          
C1E      C      0.250000000000     0.590280000000     0.909720000000     0          
C2E      C      0.250000000000     0.562790000000     0.937210000000     0          
C3E      C      0.250000000000     0.668710000000     0.831290000000     0          
C4RA     C      0.255540000000     0.572290000000     0.971510000000     0          
C5RA     C      0.261170000000     0.607100000000     0.983060000000     0          
H1RA     H      0.264400000000     0.626900000000     0.968500000000     0          
C6RA     C      0.223100000000     0.613170000000     0.906820000000     0          
H2RA     H      0.204600000000     0.612700000000     0.923300000000     0          
C7RA     C      0.222710000000     0.636950000000     0.880060000000     0          
H3RA     H      0.202600000000     0.651000000000     0.876300000000     0          
C8E      C      0.250000000000     0.640250000000     0.859750000000     0          
N1E      N      0.248160000000     0.500000000000     0.949780000000     0          
O2XA     O      0.276860000000     0.327860000000     0.814570000000     0          
C4XA     C      0.244460000000     0.471510000000     0.927710000000     0          
C5XA     C      0.238830000000     0.483060000000     0.892900000000     0          
H1XA     H      0.235600000000     0.468500000000     0.873100000000     0          
C6XA     C      0.276900000000     0.406820000000     0.886830000000     0          
H2XA     H      0.295400000000     0.423300000000     0.887300000000     0          
C7XA     C      0.277290000000     0.380060000000     0.863050000000     0          
H3XA     H      0.297400000000     0.376300000000     0.849000000000     0          
O2E      O      0.276860000000     0.672140000000     0.814570000000     0          
C4E      C      0.244460000000     0.528490000000     0.927710000000     0          
C5E      C      0.238830000000     0.516940000000     0.892900000000     0          
H1E      H      0.235600000000     0.531500000000     0.873100000000     0          
C6E      C      0.276900000000     0.593180000000     0.886830000000     0          
H2E      H      0.295400000000     0.576700000000     0.887300000000     0          
C7E      C      0.277290000000     0.619940000000     0.863050000000     0          
H3E      H      0.297400000000     0.623700000000     0.849000000000     0          
O4SB     O      0.250410000000     0.346460000000     0.298990000000     0          
C10SB    C      0.263400000000     0.414270000000     0.306470000000     0          
H4SB     H      0.241300000000     0.404100000000     0.311100000000     0          
C12SB    C      0.271700000000     0.448880000000     0.314790000000     0          
H5SB     H      0.255700000000     0.464400000000     0.325600000000     0          
Zr1A     Zr     0.714350000000     0.285650000000     0.221100000000     0          
Ni1A     Ni     0.500000000000     0.250000000000     0.000000000000     0          
O1A      O      0.717200000000     0.282800000000     0.282800000000     0          
N1A      N      0.500000000000     0.248160000000     0.050220000000     0          
O2A      O      0.672140000000     0.276860000000     0.185430000000     0          
O3A      O      0.753870000000     0.315920000000     0.246130000000     0          
C1A      C      0.590280000000     0.250000000000     0.090280000000     0          
C2A      C      0.562790000000     0.250000000000     0.062790000000     0          
C3A      C      0.668710000000     0.250000000000     0.168710000000     0          
C4A      C      0.528490000000     0.244460000000     0.072290000000     0          
C5A      C      0.516940000000     0.238830000000     0.107100000000     0          
H1A      H      0.531500000000     0.235600000000     0.126900000000     0          
C6A      C      0.593180000000     0.276900000000     0.113170000000     0          
H2A      H      0.576700000000     0.295400000000     0.112700000000     0          
C7A      C      0.619940000000     0.277290000000     0.136950000000     0          
H3A      H      0.623700000000     0.297400000000     0.151000000000     0          
C8A      C      0.640250000000     0.250000000000     0.140250000000     0          
O4A      O      0.653540000000     0.298990000000     0.250410000000     0          
C9A      C      0.639570000000     0.287360000000     0.287360000000     0          
C10A     C      0.585730000000     0.306470000000     0.263400000000     0          
H4A      H      0.595900000000     0.311100000000     0.241300000000     0          
C11A     C      0.603660000000     0.290770000000     0.290770000000     0          
N2A      N      0.541610000000     0.305700000000     0.305700000000     0          
C12A     C      0.551120000000     0.314790000000     0.271700000000     0          
H5A      H      0.535600000000     0.325600000000     0.255700000000     0          
N1KA     N      0.550220000000     0.251840000000     0.000000000000     0          
O2KA     O      0.685430000000     0.223140000000     0.172140000000     0          
C4KA     C      0.572290000000     0.255540000000     0.028490000000     0          
C5KA     C      0.607100000000     0.261170000000     0.016940000000     0          
H1KA     H      0.626900000000     0.264400000000     0.031500000000     0          
C6KA     C      0.613170000000     0.223100000000     0.093180000000     0          
H2KA     H      0.612700000000     0.204600000000     0.076700000000     0          
C7KA     C      0.636950000000     0.222710000000     0.119940000000     0          
H3KA     H      0.651000000000     0.202600000000     0.123700000000     0          
O2OB     O      0.327860000000     0.276860000000     0.185430000000     0          
C1OB     C      0.409720000000     0.250000000000     0.090280000000     0          
C2OB     C      0.437210000000     0.250000000000     0.062790000000     0          
C3OB     C      0.331290000000     0.250000000000     0.168710000000     0          
C4OB     C      0.471510000000     0.244460000000     0.072290000000     0          
C5OB     C      0.483060000000     0.238830000000     0.107100000000     0          
H1OB     H      0.468500000000     0.235600000000     0.126900000000     0          
C6OB     C      0.406820000000     0.276900000000     0.113170000000     0          
H2OB     H      0.423300000000     0.295400000000     0.112700000000     0          
C7OB     C      0.380060000000     0.277290000000     0.136950000000     0          
H3OB     H      0.376300000000     0.297400000000     0.151000000000     0          
C8OB     C      0.359750000000     0.250000000000     0.140250000000     0          
N1MA     N      0.449780000000     0.251840000000     0.000000000000     0          
O2DC     O      0.314570000000     0.223140000000     0.172140000000     0          
C4DC     C      0.427710000000     0.255540000000     0.028490000000     0          
C5DC     C      0.392900000000     0.261170000000     0.016940000000     0          
H1DC     H      0.373100000000     0.264400000000     0.031500000000     0          
C6DC     C      0.386830000000     0.223100000000     0.093180000000     0          
H2DC     H      0.387300000000     0.204600000000     0.076700000000     0          
C7DC     C      0.363050000000     0.222710000000     0.119940000000     0          
H3DC     H      0.349000000000     0.202600000000     0.123700000000     0          
O2JC     O      0.685430000000     0.223140000000     0.827860000000     0          
C1YA     C      0.590280000000     0.250000000000     0.909720000000     0          
C2YA     C      0.562790000000     0.250000000000     0.937210000000     0          
C3YA     C      0.668710000000     0.250000000000     0.831290000000     0          
C4JC     C      0.572290000000     0.255540000000     0.971510000000     0          
C5JC     C      0.607100000000     0.261170000000     0.983060000000     0          
H1JC     H      0.626900000000     0.264400000000     0.968500000000     0          
C6JC     C      0.613170000000     0.223100000000     0.906820000000     0          
H2JC     H      0.612700000000     0.204600000000     0.923300000000     0          
C7JC     C      0.636950000000     0.222710000000     0.880060000000     0          
H3JC     H      0.651000000000     0.202600000000     0.876300000000     0          
C8YA     C      0.640250000000     0.250000000000     0.859750000000     0          
O2MA     O      0.314570000000     0.223140000000     0.827860000000     0          
C1R      C      0.409720000000     0.250000000000     0.909720000000     0          
C2R      C      0.437210000000     0.250000000000     0.937210000000     0          
C3R      C      0.331290000000     0.250000000000     0.831290000000     0          
C4MA     C      0.427710000000     0.255540000000     0.971510000000     0          
C5MA     C      0.392900000000     0.261170000000     0.983060000000     0          
H1MA     H      0.373100000000     0.264400000000     0.968500000000     0          
C6MA     C      0.386830000000     0.223100000000     0.906820000000     0          
H2MA     H      0.387300000000     0.204600000000     0.923300000000     0          
C7MA     C      0.363050000000     0.222710000000     0.880060000000     0          
H3MA     H      0.349000000000     0.202600000000     0.876300000000     0          
C8R      C      0.359750000000     0.250000000000     0.859750000000     0          
N1R      N      0.500000000000     0.248160000000     0.949780000000     0          
O2YA     O      0.672140000000     0.276860000000     0.814570000000     0          
C4YA     C      0.528490000000     0.244460000000     0.927710000000     0          
C5YA     C      0.516940000000     0.238830000000     0.892900000000     0          
H1YA     H      0.531500000000     0.235600000000     0.873100000000     0          
C6YA     C      0.593180000000     0.276900000000     0.886830000000     0          
H2YA     H      0.576700000000     0.295400000000     0.887300000000     0          
C7YA     C      0.619940000000     0.277290000000     0.863050000000     0          
H3YA     H      0.623700000000     0.297400000000     0.849000000000     0          
O2R      O      0.327860000000     0.276860000000     0.814570000000     0          
C4R      C      0.471510000000     0.244460000000     0.927710000000     0          
C5R      C      0.483060000000     0.238830000000     0.892900000000     0          
H1R      H      0.468500000000     0.235600000000     0.873100000000     0          
C6R      C      0.406820000000     0.276900000000     0.886830000000     0          
H2R      H      0.423300000000     0.295400000000     0.887300000000     0          
C7R      C      0.380060000000     0.277290000000     0.863050000000     0          
H3R      H      0.376300000000     0.297400000000     0.849000000000     0          
O4MB     O      0.653540000000     0.250410000000     0.298990000000     0          
C10MB    C      0.585730000000     0.263400000000     0.306470000000     0          
H4MB     H      0.595900000000     0.241300000000     0.311100000000     0          
C12MB    C      0.551120000000     0.271700000000     0.314790000000     0          
H5MB     H      0.535600000000     0.255700000000     0.325600000000     0          
Zr1C     Zr     0.285650000000     0.714350000000     0.221100000000     0          
Ni1C     Ni     0.500000000000     0.750000000000     0.000000000000     0          
O1C      O      0.282800000000     0.717200000000     0.282800000000     0          
N1C      N      0.500000000000     0.751840000000     0.050220000000     0          
O2C      O      0.327860000000     0.723140000000     0.185430000000     0          
O3C      O      0.246130000000     0.684080000000     0.246130000000     0          
C1C      C      0.409720000000     0.750000000000     0.090280000000     0          
C2C      C      0.437210000000     0.750000000000     0.062790000000     0          
C3C      C      0.331290000000     0.750000000000     0.168710000000     0          
C4C      C      0.471510000000     0.755540000000     0.072290000000     0          
C5C      C      0.483060000000     0.761170000000     0.107100000000     0          
H1C      H      0.468500000000     0.764400000000     0.126900000000     0          
C6C      C      0.406820000000     0.723100000000     0.113170000000     0          
H2C      H      0.423300000000     0.704600000000     0.112700000000     0          
C7C      C      0.380060000000     0.722710000000     0.136950000000     0          
H3C      H      0.376300000000     0.702600000000     0.151000000000     0          
C8C      C      0.359750000000     0.750000000000     0.140250000000     0          
O4C      O      0.346460000000     0.701010000000     0.250410000000     0          
C9C      C      0.360430000000     0.712640000000     0.287360000000     0          
C10C     C      0.414270000000     0.693530000000     0.263400000000     0          
H4C      H      0.404100000000     0.688900000000     0.241300000000     0          
C11C     C      0.396340000000     0.709230000000     0.290770000000     0          
N2C      N      0.458390000000     0.694300000000     0.305700000000     0          
C12C     C      0.448880000000     0.685210000000     0.271700000000     0          
H5C      H      0.464400000000     0.674400000000     0.255700000000     0          
N1NA     N      0.449780000000     0.748160000000     0.000000000000     0          
O2NA     O      0.314570000000     0.776860000000     0.172140000000     0          
C4NA     C      0.427710000000     0.744460000000     0.028490000000     0          
C5NA     C      0.392900000000     0.738830000000     0.016940000000     0          
H1NA     H      0.373100000000     0.735600000000     0.031500000000     0          
C6NA     C      0.386830000000     0.776900000000     0.093180000000     0          
H2NA     H      0.387300000000     0.795400000000     0.076700000000     0          
C7NA     C      0.363050000000     0.777290000000     0.119940000000     0          
H3NA     H      0.349000000000     0.797400000000     0.123700000000     0          
O2NB     O      0.672140000000     0.723140000000     0.185430000000     0          
C1NB     C      0.590280000000     0.750000000000     0.090280000000     0          
C2NB     C      0.562790000000     0.750000000000     0.062790000000     0          
C3NB     C      0.668710000000     0.750000000000     0.168710000000     0          
C4NB     C      0.528490000000     0.755540000000     0.072290000000     0          
C5NB     C      0.516940000000     0.761170000000     0.107100000000     0          
H1NB     H      0.531500000000     0.764400000000     0.126900000000     0          
C6NB     C      0.593180000000     0.723100000000     0.113170000000     0          
H2NB     H      0.576700000000     0.704600000000     0.112700000000     0          
C7NB     C      0.619940000000     0.722710000000     0.136950000000     0          
H3NB     H      0.623700000000     0.702600000000     0.151000000000     0          
C8NB     C      0.640250000000     0.750000000000     0.140250000000     0          
N1HA     N      0.550220000000     0.748160000000     0.000000000000     0          
O2IC     O      0.685430000000     0.776860000000     0.172140000000     0          
C4IC     C      0.572290000000     0.744460000000     0.028490000000     0          
C5IC     C      0.607100000000     0.738830000000     0.016940000000     0          
H1IC     H      0.626900000000     0.735600000000     0.031500000000     0          
C6IC     C      0.613170000000     0.776900000000     0.093180000000     0          
H2IC     H      0.612700000000     0.795400000000     0.076700000000     0          
C7IC     C      0.636950000000     0.777290000000     0.119940000000     0          
H3IC     H      0.651000000000     0.797400000000     0.123700000000     0          
O2GC     O      0.314570000000     0.776860000000     0.827860000000     0          
C1WA     C      0.409720000000     0.750000000000     0.909720000000     0          
C2WA     C      0.437210000000     0.750000000000     0.937210000000     0          
C3WA     C      0.331290000000     0.750000000000     0.831290000000     0          
C4GC     C      0.427710000000     0.744460000000     0.971510000000     0          
C5GC     C      0.392900000000     0.738830000000     0.983060000000     0          
H1GC     H      0.373100000000     0.735600000000     0.968500000000     0          
C6GC     C      0.386830000000     0.776900000000     0.906820000000     0          
H2GC     H      0.387300000000     0.795400000000     0.923300000000     0          
C7GC     C      0.363050000000     0.777290000000     0.880060000000     0          
H3GC     H      0.349000000000     0.797400000000     0.876300000000     0          
C8WA     C      0.359750000000     0.750000000000     0.859750000000     0          
O2HA     O      0.685430000000     0.776860000000     0.827860000000     0          
C1S      C      0.590280000000     0.750000000000     0.909720000000     0          
C2S      C      0.562790000000     0.750000000000     0.937210000000     0          
C3S      C      0.668710000000     0.750000000000     0.831290000000     0          
C4HA     C      0.572290000000     0.744460000000     0.971510000000     0          
C5HA     C      0.607100000000     0.738830000000     0.983060000000     0          
H1HA     H      0.626900000000     0.735600000000     0.968500000000     0          
C6HA     C      0.613170000000     0.776900000000     0.906820000000     0          
H2HA     H      0.612700000000     0.795400000000     0.923300000000     0          
C7HA     C      0.636950000000     0.777290000000     0.880060000000     0          
H3HA     H      0.651000000000     0.797400000000     0.876300000000     0          
C8S      C      0.640250000000     0.750000000000     0.859750000000     0          
N1S      N      0.500000000000     0.751840000000     0.949780000000     0          
O2WA     O      0.327860000000     0.723140000000     0.814570000000     0          
C4WA     C      0.471510000000     0.755540000000     0.927710000000     0          
C5WA     C      0.483060000000     0.761170000000     0.892900000000     0          
H1WA     H      0.468500000000     0.764400000000     0.873100000000     0          
C6WA     C      0.406820000000     0.723100000000     0.886830000000     0          
H2WA     H      0.423300000000     0.704600000000     0.887300000000     0          
C7WA     C      0.380060000000     0.722710000000     0.863050000000     0          
H3WA     H      0.376300000000     0.702600000000     0.849000000000     0          
O2S      O      0.672140000000     0.723140000000     0.814570000000     0          
C4S      C      0.528490000000     0.755540000000     0.927710000000     0          
C5S      C      0.516940000000     0.761170000000     0.892900000000     0          
H1S      H      0.531500000000     0.764400000000     0.873100000000     0          
C6S      C      0.593180000000     0.723100000000     0.886830000000     0          
H2S      H      0.576700000000     0.704600000000     0.887300000000     0          
C7S      C      0.619940000000     0.722710000000     0.863050000000     0          
H3S      H      0.623700000000     0.702600000000     0.849000000000     0          
O4JB     O      0.346460000000     0.749590000000     0.298990000000     0          
C10JB    C      0.414270000000     0.736600000000     0.306470000000     0          
H4JB     H      0.404100000000     0.758700000000     0.311100000000     0          
C12JB    C      0.448880000000     0.728300000000     0.314790000000     0          
H5JB     H      0.464400000000     0.744300000000     0.325600000000     0          
Zr1D     Zr     0.285650000000     0.778900000000     0.285650000000     0          
O3D      O      0.315920000000     0.753870000000     0.246130000000     0          
O4D      O      0.298990000000     0.749590000000     0.346460000000     0          
C9D      C      0.287360000000     0.712640000000     0.360430000000     0          
C10D     C      0.306470000000     0.736600000000     0.414270000000     0          
H4D      H      0.311100000000     0.758700000000     0.404100000000     0          
C11D     C      0.290770000000     0.709230000000     0.396340000000     0          
N2D      N      0.305700000000     0.694300000000     0.458390000000     0          
C12D     C      0.314790000000     0.728300000000     0.448880000000     0          
H5D      H      0.325600000000     0.744300000000     0.464400000000     0          
O4LB     O      0.250410000000     0.701010000000     0.346460000000     0          
C10LB    C      0.263400000000     0.693530000000     0.414270000000     0          
H4LB     H      0.241300000000     0.688900000000     0.404100000000     0          
C12LB    C      0.271700000000     0.685210000000     0.448880000000     0          
H5LB     H      0.255700000000     0.674400000000     0.464400000000     0          
Zr1E     Zr     0.285650000000     0.714350000000     0.778900000000     0          
O4E      O      0.298990000000     0.653540000000     0.749590000000     0          
C9E      C      0.287360000000     0.639570000000     0.712640000000     0          
C10E     C      0.306470000000     0.585730000000     0.736600000000     0          
H4E      H      0.311100000000     0.595900000000     0.758700000000     0          
C11E     C      0.290770000000     0.603660000000     0.709230000000     0          
N2E      N      0.305700000000     0.541610000000     0.694300000000     0          
C12E     C      0.314790000000     0.551120000000     0.728300000000     0          
H5E      H      0.325600000000     0.535600000000     0.744300000000     0          
O4EB     O      0.250410000000     0.653540000000     0.701010000000     0          
C10EB    C      0.263400000000     0.585730000000     0.693530000000     0          
H4EB     H      0.241300000000     0.595900000000     0.688900000000     0          
C12EB    C      0.271700000000     0.551120000000     0.685210000000     0          
H5EB     H      0.255700000000     0.535600000000     0.674400000000     0          
Zr1J     Zr     0.221100000000     0.285650000000     0.285650000000     0          
O3J      O      0.246130000000     0.315920000000     0.246130000000     0          
O4J      O      0.250410000000     0.298990000000     0.346460000000     0          
C9J      C      0.287360000000     0.287360000000     0.360430000000     0          
C10J     C      0.263400000000     0.306470000000     0.414270000000     0          
H4J      H      0.241300000000     0.311100000000     0.404100000000     0          
C11J     C      0.290770000000     0.290770000000     0.396340000000     0          
N2J      N      0.305700000000     0.305700000000     0.458390000000     0          
C12J     C      0.271700000000     0.314790000000     0.448880000000     0          
H5J      H      0.255700000000     0.325600000000     0.464400000000     0          
O4QB     O      0.298990000000     0.250410000000     0.346460000000     0          
C10QB    C      0.306470000000     0.263400000000     0.414270000000     0          
H4QB     H      0.311100000000     0.241300000000     0.404100000000     0          
C12QB    C      0.314790000000     0.271700000000     0.448880000000     0          
H5QB     H      0.325600000000     0.255700000000     0.464400000000     0          
Zr1K     Zr     0.285650000000     0.221100000000     0.285650000000     0          
O3K      O      0.246130000000     0.246130000000     0.315920000000     0          
O4K      O      0.346460000000     0.250410000000     0.298990000000     0          
C9K      C      0.360430000000     0.287360000000     0.287360000000     0          
C10K     C      0.414270000000     0.263400000000     0.306470000000     0          
H4K      H      0.404100000000     0.241300000000     0.311100000000     0          
C11K     C      0.396340000000     0.290770000000     0.290770000000     0          
N2K      N      0.458390000000     0.305700000000     0.305700000000     0          
C12K     C      0.448880000000     0.271700000000     0.314790000000     0          
H5K      H      0.464400000000     0.255700000000     0.325600000000     0          
O4OB     O      0.346460000000     0.298990000000     0.250410000000     0          
C10OB    C      0.414270000000     0.306470000000     0.263400000000     0          
H4OB     H      0.404100000000     0.311100000000     0.241300000000     0          
C12OB    C      0.448880000000     0.314790000000     0.271700000000     0          
H5OB     H      0.464400000000     0.325600000000     0.255700000000     0          
Zr1R     Zr     0.285650000000     0.285650000000     0.778900000000     0          
O1F      O      0.282800000000     0.282800000000     0.717200000000     0          
O3R      O      0.246130000000     0.315920000000     0.753870000000     0          
O4R      O      0.346460000000     0.298990000000     0.749590000000     0          
C9R      C      0.360430000000     0.287360000000     0.712640000000     0          
C10R     C      0.414270000000     0.306470000000     0.736600000000     0          
H4R      H      0.404100000000     0.311100000000     0.758700000000     0          
C11R     C      0.396340000000     0.290770000000     0.709230000000     0          
N2R      N      0.458390000000     0.305700000000     0.694300000000     0          
C12R     C      0.448880000000     0.314790000000     0.728300000000     0          
H5R      H      0.464400000000     0.325600000000     0.744300000000     0          
O4HB     O      0.346460000000     0.250410000000     0.701010000000     0          
C10HB    C      0.414270000000     0.263400000000     0.693530000000     0          
H4HB     H      0.404100000000     0.241300000000     0.688900000000     0          
C12HB    C      0.448880000000     0.271700000000     0.685210000000     0          
H5HB     H      0.464400000000     0.255700000000     0.674400000000     0          
Zr1S     Zr     0.714350000000     0.714350000000     0.778900000000     0          
O3S      O      0.753870000000     0.684080000000     0.753870000000     0          
O4S      O      0.653540000000     0.701010000000     0.749590000000     0          
C9S      C      0.639570000000     0.712640000000     0.712640000000     0          
C10S     C      0.585730000000     0.693530000000     0.736600000000     0          
H4S      H      0.595900000000     0.688900000000     0.758700000000     0          
C11S     C      0.603660000000     0.709230000000     0.709230000000     0          
N2S      N      0.541610000000     0.694300000000     0.694300000000     0          
C12S     C      0.551120000000     0.685210000000     0.728300000000     0          
H5S      H      0.535600000000     0.674400000000     0.744300000000     0          
O4GB     O      0.653540000000     0.749590000000     0.701010000000     0          
C10GB    C      0.585730000000     0.736600000000     0.693530000000     0          
H4GB     H      0.595900000000     0.758700000000     0.688900000000     0          
C12GB    C      0.551120000000     0.728300000000     0.685210000000     0          
H5GB     H      0.535600000000     0.744300000000     0.674400000000     0          
Zr1V     Zr     0.221100000000     0.714350000000     0.285650000000     0          
O3V      O      0.246130000000     0.753870000000     0.315920000000     0          
O4V      O      0.250410000000     0.653540000000     0.298990000000     0          
C9V      C      0.287360000000     0.639570000000     0.287360000000     0          
C10V     C      0.263400000000     0.585730000000     0.306470000000     0          
H4V      H      0.241300000000     0.595900000000     0.311100000000     0          
C11V     C      0.290770000000     0.603660000000     0.290770000000     0          
N2V      N      0.305700000000     0.541610000000     0.305700000000     0          
C12V     C      0.271700000000     0.551120000000     0.314790000000     0          
H5V      H      0.255700000000     0.535600000000     0.325600000000     0          
O4DB     O      0.298990000000     0.653540000000     0.250410000000     0          
C10DB    C      0.306470000000     0.585730000000     0.263400000000     0          
H4DB     H      0.311100000000     0.595900000000     0.241300000000     0          
C12DB    C      0.314790000000     0.551120000000     0.271700000000     0          
H5DB     H      0.325600000000     0.535600000000     0.255700000000     0          
Zr1QA    Zr     0.214350000000     0.214350000000     0.278900000000     0          
O3QA     O      0.253870000000     0.184080000000     0.253870000000     0          
O4QA     O      0.153540000000     0.201010000000     0.249590000000     0          
C9QA     C      0.139570000000     0.212640000000     0.212640000000     0          
C10QA    C      0.085730000000     0.193530000000     0.236600000000     0          
H4QA     H      0.095900000000     0.188900000000     0.258700000000     0          
C11QA    C      0.103660000000     0.209230000000     0.209230000000     0          
N2QA     N      0.041610000000     0.194300000000     0.194300000000     0          
C12QA    C      0.051120000000     0.185210000000     0.228300000000     0          
H5QA     H      0.035600000000     0.174400000000     0.244300000000     0          
O4EC     O      0.153540000000     0.249590000000     0.201010000000     0          
C10EC    C      0.085730000000     0.236600000000     0.193530000000     0          
H4EC     H      0.095900000000     0.258700000000     0.188900000000     0          
C12EC    C      0.051120000000     0.228300000000     0.185210000000     0          
H5EC     H      0.035600000000     0.244300000000     0.174400000000     0          
Zr1RA    Zr     0.214350000000     0.721100000000     0.785650000000     0          
O3SA     O      0.184080000000     0.253870000000     0.253870000000     0          
O4AB     O      0.701010000000     0.346460000000     0.250410000000     0          
C9I      C      0.712640000000     0.360430000000     0.287360000000     0          
C10AB    C      0.693530000000     0.414270000000     0.263400000000     0          
H4AB     H      0.688900000000     0.404100000000     0.241300000000     0          
C11I     C      0.709230000000     0.396340000000     0.290770000000     0          
N2I      N      0.694300000000     0.458390000000     0.305700000000     0          
C12AB    C      0.685210000000     0.448880000000     0.271700000000     0          
H5AB     H      0.674400000000     0.464400000000     0.255700000000     0          
O4I      O      0.749590000000     0.346460000000     0.298990000000     0          
C10I     C      0.736600000000     0.414270000000     0.306470000000     0          
H4I      H      0.758700000000     0.404100000000     0.311100000000     0          
C12I     C      0.728300000000     0.448880000000     0.314790000000     0          
H5I      H      0.744300000000     0.464400000000     0.325600000000     0          
O3UA     O      0.253870000000     0.253870000000     0.184080000000     0          
Zr1B     Zr     0.714350000000     0.714350000000     0.221100000000     0          
Zr1F     Zr     0.285650000000     0.221100000000     0.714350000000     0          
Zr1G     Zr     0.221100000000     0.285650000000     0.714350000000     0          
Zr1H     Zr     0.714350000000     0.285650000000     0.778900000000     0          
Zr1I     Zr     0.778900000000     0.285650000000     0.285650000000     0          
Zr1M     Zr     0.221100000000     0.714350000000     0.714350000000     0          
Zr1T     Zr     0.714350000000     0.221100000000     0.285650000000     0          
Zr1U     Zr     0.714350000000     0.778900000000     0.714350000000     0          
Zr1W     Zr     0.778900000000     0.714350000000     0.714350000000     0          
Zr1EA    Zr     0.721100000000     0.785650000000     0.214350000000     0          
Zr1FA    Zr     0.214350000000     0.785650000000     0.278900000000     0          
Zr1GA    Zr     0.278900000000     0.785650000000     0.785650000000     0          
Zr1HA    Zr     0.721100000000     0.785650000000     0.785650000000     0          
Zr1IA    Zr     0.785650000000     0.721100000000     0.785650000000     0          
Zr1JA    Zr     0.214350000000     0.278900000000     0.785650000000     0          
Zr1KA    Zr     0.721100000000     0.214350000000     0.214350000000     0          
Zr1LA    Zr     0.214350000000     0.721100000000     0.214350000000     0          
Zr1MA    Zr     0.278900000000     0.214350000000     0.785650000000     0          
Zr1NA    Zr     0.278900000000     0.785650000000     0.214350000000     0          
Zr1OA    Zr     0.785650000000     0.278900000000     0.214350000000     0          
Zr1SA    Zr     0.214350000000     0.278900000000     0.214350000000     0          
Zr1TA    Zr     0.721100000000     0.214350000000     0.785650000000     0          
Zr1UA    Zr     0.278900000000     0.214350000000     0.214350000000     0          
O1E      O      0.282800000000     0.717200000000     0.717200000000     0          
O1S      O      0.717200000000     0.717200000000     0.717200000000     0          
O1Y      O      0.217200000000     0.782800000000     0.782800000000     0          
O1QA     O      0.217200000000     0.217200000000     0.217200000000     0          
O2D      O      0.276860000000     0.814570000000     0.327860000000     0          
O2J      O      0.185430000000     0.276860000000     0.327860000000     0          
O2K      O      0.327860000000     0.185430000000     0.276860000000     0          
O2V      O      0.185430000000     0.672140000000     0.276860000000     0          
O2QA     O      0.172140000000     0.223140000000     0.314570000000     0          
O2VA     O      0.723140000000     0.672140000000     0.814570000000     0          
O2AB     O      0.723140000000     0.327860000000     0.185430000000     0          
O2JB     O      0.327860000000     0.814570000000     0.276860000000     0          
O2LB     O      0.185430000000     0.723140000000     0.327860000000     0          
O2QB     O      0.276860000000     0.185430000000     0.327860000000     0          
O2SB     O      0.185430000000     0.327860000000     0.276860000000     0          
O2TB     O      0.223140000000     0.172140000000     0.314570000000     0          
O2KC     O      0.172140000000     0.685430000000     0.776860000000     0          
O3E      O      0.315920000000     0.753870000000     0.753870000000     0          
O3F      O      0.315920000000     0.246130000000     0.753870000000     0          
O3M      O      0.246130000000     0.684080000000     0.753870000000     0          
O3T      O      0.684080000000     0.246130000000     0.246130000000     0          
O3U      O      0.684080000000     0.753870000000     0.753870000000     0          
O3FA     O      0.184080000000     0.746130000000     0.253870000000     0          
O3GA     O      0.253870000000     0.746130000000     0.815920000000     0          
O3IA     O      0.746130000000     0.746130000000     0.815920000000     0          
O3JA     O      0.253870000000     0.253870000000     0.815920000000     0          
O3LA     O      0.253870000000     0.746130000000     0.184080000000     0          
O3NA     O      0.253870000000     0.815920000000     0.253870000000     0          
O3OA     O      0.746130000000     0.253870000000     0.184080000000     0          
O3RA     O      0.184080000000     0.746130000000     0.746130000000     0          
O4RA     O      0.201010000000     0.750410000000     0.846460000000     0          
O4VA     O      0.701010000000     0.653540000000     0.749590000000     0          
O4WA     O      0.346460000000     0.701010000000     0.749590000000     0          
O4XA     O      0.298990000000     0.346460000000     0.749590000000     0          
O4TB     O      0.201010000000     0.153540000000     0.249590000000     0          
O4KC     O      0.153540000000     0.750410000000     0.798990000000     0          
Zr2?     Zr     0.700160000000     0.299840000000     0.235480000000     0          
Ni1A     Ni     0.750000000000     0.500000000000     0.000000000000     0          
O1A      O      0.717200000000     0.717200000000     0.282800000000     0          
N1A      N      0.751840000000     0.500000000000     0.050220000000     0          
O2A      O      0.723140000000     0.672140000000     0.185430000000     0          
O3A      O      0.684080000000     0.753870000000     0.246130000000     0          
C1A      C      0.750000000000     0.590280000000     0.090280000000     0          
C2A      C      0.750000000000     0.562790000000     0.062790000000     0          
C3A      C      0.750000000000     0.668710000000     0.168710000000     0          
C4A      C      0.755540000000     0.528490000000     0.072290000000     0          
C5A      C      0.761170000000     0.516940000000     0.107100000000     0          
H1A      H      0.764400000000     0.531500000000     0.126900000000     0          
C6A      C      0.723100000000     0.593180000000     0.113170000000     0          
H2A      H      0.704600000000     0.576700000000     0.112700000000     0          
C7A      C      0.722710000000     0.619940000000     0.136950000000     0          
H3A      H      0.702600000000     0.623700000000     0.151000000000     0          
C8A      C      0.750000000000     0.640250000000     0.140250000000     0          
O4A      O      0.701010000000     0.653540000000     0.250410000000     0          
C9A      C      0.712640000000     0.639570000000     0.287360000000     0          
C10A     C      0.693530000000     0.585730000000     0.263400000000     0          
H4A      H      0.688900000000     0.595900000000     0.241300000000     0          
C11A     C      0.709230000000     0.603660000000     0.290770000000     0          
N2A      N      0.694300000000     0.541610000000     0.305700000000     0          
C12A     C      0.685210000000     0.551120000000     0.271700000000     0          
H5A      H      0.674400000000     0.535600000000     0.255700000000     0          
N1KA     N      0.748160000000     0.550220000000     0.000000000000     0          
O2KA     O      0.776860000000     0.685430000000     0.172140000000     0          
C4KA     C      0.744460000000     0.572290000000     0.028490000000     0          
C5KA     C      0.738830000000     0.607100000000     0.016940000000     0          
H1KA     H      0.735600000000     0.626900000000     0.031500000000     0          
C6KA     C      0.776900000000     0.613170000000     0.093180000000     0          
H2KA     H      0.795400000000     0.612700000000     0.076700000000     0          
C7KA     C      0.777290000000     0.636950000000     0.119940000000     0          
H3KA     H      0.797400000000     0.651000000000     0.123700000000     0          
C1OB     C      0.750000000000     0.409720000000     0.090280000000     0          
C2OB     C      0.750000000000     0.437210000000     0.062790000000     0          
C3OB     C      0.750000000000     0.331290000000     0.168710000000     0          
C4OB     C      0.755540000000     0.471510000000     0.072290000000     0          
C5OB     C      0.761170000000     0.483060000000     0.107100000000     0          
H1OB     H      0.764400000000     0.468500000000     0.126900000000     0          
C6OB     C      0.723100000000     0.406820000000     0.113170000000     0          
H2OB     H      0.704600000000     0.423300000000     0.112700000000     0          
C7OB     C      0.722710000000     0.380060000000     0.136950000000     0          
H3OB     H      0.702600000000     0.376300000000     0.151000000000     0          
C8OB     C      0.750000000000     0.359750000000     0.140250000000     0          
N1MA     N      0.748160000000     0.449780000000     0.000000000000     0          
O2DC     O      0.776860000000     0.314570000000     0.172140000000     0          
C4DC     C      0.744460000000     0.427710000000     0.028490000000     0          
C5DC     C      0.738830000000     0.392900000000     0.016940000000     0          
H1DC     H      0.735600000000     0.373100000000     0.031500000000     0          
C6DC     C      0.776900000000     0.386830000000     0.093180000000     0          
H2DC     H      0.795400000000     0.387300000000     0.076700000000     0          
C7DC     C      0.777290000000     0.363050000000     0.119940000000     0          
H3DC     H      0.797400000000     0.349000000000     0.123700000000     0          
O2JC     O      0.776860000000     0.685430000000     0.827860000000     0          
C1YA     C      0.750000000000     0.590280000000     0.909720000000     0          
C2YA     C      0.750000000000     0.562790000000     0.937210000000     0          
C3YA     C      0.750000000000     0.668710000000     0.831290000000     0          
C4JC     C      0.744460000000     0.572290000000     0.971510000000     0          
C5JC     C      0.738830000000     0.607100000000     0.983060000000     0          
H1JC     H      0.735600000000     0.626900000000     0.968500000000     0          
C6JC     C      0.776900000000     0.613170000000     0.906820000000     0          
H2JC     H      0.795400000000     0.612700000000     0.923300000000     0          
C7JC     C      0.777290000000     0.636950000000     0.880060000000     0          
H3JC     H      0.797400000000     0.651000000000     0.876300000000     0          
C8YA     C      0.750000000000     0.640250000000     0.859750000000     0          
O2MA     O      0.776860000000     0.314570000000     0.827860000000     0          
C1R      C      0.750000000000     0.409720000000     0.909720000000     0          
C2R      C      0.750000000000     0.437210000000     0.937210000000     0          
C3R      C      0.750000000000     0.331290000000     0.831290000000     0          
C4MA     C      0.744460000000     0.427710000000     0.971510000000     0          
C5MA     C      0.738830000000     0.392900000000     0.983060000000     0          
H1MA     H      0.735600000000     0.373100000000     0.968500000000     0          
C6MA     C      0.776900000000     0.386830000000     0.906820000000     0          
H2MA     H      0.795400000000     0.387300000000     0.923300000000     0          
C7MA     C      0.777290000000     0.363050000000     0.880060000000     0          
H3MA     H      0.797400000000     0.349000000000     0.876300000000     0          
C8R      C      0.750000000000     0.359750000000     0.859750000000     0          
N1R      N      0.751840000000     0.500000000000     0.949780000000     0          
C4YA     C      0.755540000000     0.528490000000     0.927710000000     0          
C5YA     C      0.761170000000     0.516940000000     0.892900000000     0          
H1YA     H      0.764400000000     0.531500000000     0.873100000000     0          
C6YA     C      0.723100000000     0.593180000000     0.886830000000     0          
H2YA     H      0.704600000000     0.576700000000     0.887300000000     0          
C7YA     C      0.722710000000     0.619940000000     0.863050000000     0          
H3YA     H      0.702600000000     0.623700000000     0.849000000000     0          
O2R      O      0.723140000000     0.327860000000     0.814570000000     0          
C4R      C      0.755540000000     0.471510000000     0.927710000000     0          
C5R      C      0.761170000000     0.483060000000     0.892900000000     0          
H1R      H      0.764400000000     0.468500000000     0.873100000000     0          
C6R      C      0.723100000000     0.406820000000     0.886830000000     0          
H2R      H      0.704600000000     0.423300000000     0.887300000000     0          
C7R      C      0.722710000000     0.380060000000     0.863050000000     0          
H3R      H      0.702600000000     0.376300000000     0.849000000000     0          
O4MB     O      0.749590000000     0.653540000000     0.298990000000     0          
C10MB    C      0.736600000000     0.585730000000     0.306470000000     0          
H4MB     H      0.758700000000     0.595900000000     0.311100000000     0          
C12MB    C      0.728300000000     0.551120000000     0.314790000000     0          
H5MB     H      0.744300000000     0.535600000000     0.325600000000     0          
O4J      O      0.701010000000     0.250410000000     0.346460000000     0          
C9J      C      0.712640000000     0.287360000000     0.360430000000     0          
C10J     C      0.693530000000     0.263400000000     0.414270000000     0          
H4J      H      0.688900000000     0.241300000000     0.404100000000     0          
C11J     C      0.709230000000     0.290770000000     0.396340000000     0          
N2J      N      0.694300000000     0.305700000000     0.458390000000     0          
C12J     C      0.685210000000     0.271700000000     0.448880000000     0          
H5J      H      0.674400000000     0.255700000000     0.464400000000     0          
O4QB     O      0.749590000000     0.298990000000     0.346460000000     0          
C10QB    C      0.736600000000     0.306470000000     0.414270000000     0          
H4QB     H      0.758700000000     0.311100000000     0.404100000000     0          
C12QB    C      0.728300000000     0.314790000000     0.448880000000     0          
H5QB     H      0.744300000000     0.325600000000     0.464400000000     0          
O3K      O      0.753870000000     0.246130000000     0.315920000000     0          
O1F      O      0.717200000000     0.282800000000     0.717200000000     0          
O3R      O      0.684080000000     0.246130000000     0.753870000000     0          
O4R      O      0.701010000000     0.346460000000     0.749590000000     0          
C9R      C      0.712640000000     0.360430000000     0.712640000000     0          
C10R     C      0.693530000000     0.414270000000     0.736600000000     0          
H4R      H      0.688900000000     0.404100000000     0.758700000000     0          
C11R     C      0.709230000000     0.396340000000     0.709230000000     0          
N2R      N      0.694300000000     0.458390000000     0.694300000000     0          
C12R     C      0.685210000000     0.448880000000     0.728300000000     0          
H5R      H      0.674400000000     0.464400000000     0.744300000000     0          
O4HB     O      0.749590000000     0.346460000000     0.701010000000     0          
C10HB    C      0.736600000000     0.414270000000     0.693530000000     0          
H4HB     H      0.758700000000     0.404100000000     0.688900000000     0          
C12HB    C      0.728300000000     0.448880000000     0.685210000000     0          
H5HB     H      0.744300000000     0.464400000000     0.674400000000     0          
Zr1QA    Zr     0.785650000000     0.214350000000     0.278900000000     0          
O3QA     O      0.815920000000     0.253870000000     0.253870000000     0          
O4QA     O      0.798990000000     0.153540000000     0.249590000000     0          
C9QA     C      0.787360000000     0.139570000000     0.212640000000     0          
C10QA    C      0.806470000000     0.085730000000     0.236600000000     0          
H4QA     H      0.811100000000     0.095900000000     0.258700000000     0          
C11QA    C      0.790770000000     0.103660000000     0.209230000000     0          
N2QA     N      0.805700000000     0.041610000000     0.194300000000     0          
C12QA    C      0.814790000000     0.051120000000     0.228300000000     0          
H5QA     H      0.825600000000     0.035600000000     0.244300000000     0          
O4EC     O      0.750410000000     0.153540000000     0.201010000000     0          
C10EC    C      0.763400000000     0.085730000000     0.193530000000     0          
H4EC     H      0.741300000000     0.095900000000     0.188900000000     0          
C12EC    C      0.771700000000     0.051120000000     0.185210000000     0          
H5EC     H      0.755700000000     0.035600000000     0.174400000000     0          
O3SA     O      0.746130000000     0.184080000000     0.253870000000     0          
O4AB     O      0.653540000000     0.701010000000     0.250410000000     0          
C9I      C      0.639570000000     0.712640000000     0.287360000000     0          
C10AB    C      0.585730000000     0.693530000000     0.263400000000     0          
H4AB     H      0.595900000000     0.688900000000     0.241300000000     0          
C11I     C      0.603660000000     0.709230000000     0.290770000000     0          
N2I      N      0.541610000000     0.694300000000     0.305700000000     0          
C12AB    C      0.551120000000     0.685210000000     0.271700000000     0          
H5AB     H      0.535600000000     0.674400000000     0.255700000000     0          
O4I      O      0.653540000000     0.749590000000     0.298990000000     0          
C10I     C      0.585730000000     0.736600000000     0.306470000000     0          
H4I      H      0.595900000000     0.758700000000     0.311100000000     0          
C12I     C      0.551120000000     0.728300000000     0.314790000000     0          
H5I      H      0.535600000000     0.744300000000     0.325600000000     0          
Zr1F     Zr     0.778900000000     0.285650000000     0.714350000000     0          
Zr1G     Zr     0.714350000000     0.221100000000     0.714350000000     0          
Zr1I     Zr     0.714350000000     0.778900000000     0.285650000000     0          
Zr1T     Zr     0.778900000000     0.714350000000     0.285650000000     0          
Zr1W     Zr     0.285650000000     0.778900000000     0.714350000000     0          
Zr1KA    Zr     0.785650000000     0.721100000000     0.214350000000     0          
Zr1MA    Zr     0.785650000000     0.278900000000     0.785650000000     0          
O1Y      O      0.217200000000     0.217200000000     0.782800000000     0          
O1QA     O      0.782800000000     0.217200000000     0.217200000000     0          
O2J      O      0.723140000000     0.185430000000     0.327860000000     0          
O2K      O      0.814570000000     0.327860000000     0.276860000000     0          
O2QA     O      0.776860000000     0.172140000000     0.314570000000     0          
O2QB     O      0.814570000000     0.276860000000     0.327860000000     0          
O2SB     O      0.672140000000     0.185430000000     0.276860000000     0          
O2TB     O      0.827860000000     0.223140000000     0.314570000000     0          
O2KC     O      0.314570000000     0.172140000000     0.776860000000     0          
O3F      O      0.753870000000     0.315920000000     0.753870000000     0          
O3T      O      0.753870000000     0.684080000000     0.246130000000     0          
O3JA     O      0.746130000000     0.253870000000     0.815920000000     0          
O3OA     O      0.746130000000     0.746130000000     0.184080000000     0          
O3RA     O      0.253870000000     0.184080000000     0.746130000000     0          
O4RA     O      0.249590000000     0.201010000000     0.846460000000     0          
O4XA     O      0.653540000000     0.298990000000     0.749590000000     0          
O4TB     O      0.846460000000     0.201010000000     0.249590000000     0          
O4KC     O      0.249590000000     0.153540000000     0.798990000000     0          
Zr2?     Zr     0.700160000000     0.700160000000     0.235480000000     0          
O4J      O      0.749590000000     0.701010000000     0.346460000000     0          
C9J      C      0.712640000000     0.712640000000     0.360430000000     0          
C10J     C      0.736600000000     0.693530000000     0.414270000000     0          
H4J      H      0.758700000000     0.688900000000     0.404100000000     0          
C11J     C      0.709230000000     0.709230000000     0.396340000000     0          
N2J      N      0.694300000000     0.694300000000     0.458390000000     0          
C12J     C      0.728300000000     0.685210000000     0.448880000000     0          
H5J      H      0.744300000000     0.674400000000     0.464400000000     0          
O4QB     O      0.701010000000     0.749590000000     0.346460000000     0          
C10QB    C      0.693530000000     0.736600000000     0.414270000000     0          
H4QB     H      0.688900000000     0.758700000000     0.404100000000     0          
C12QB    C      0.685210000000     0.728300000000     0.448880000000     0          
H5QB     H      0.674400000000     0.744300000000     0.464400000000     0          
O3K      O      0.753870000000     0.753870000000     0.315920000000     0          
Zr1QA    Zr     0.785650000000     0.785650000000     0.278900000000     0          
O3QA     O      0.746130000000     0.815920000000     0.253870000000     0          
O4QA     O      0.846460000000     0.798990000000     0.249590000000     0          
C9QA     C      0.860430000000     0.787360000000     0.212640000000     0          
C10QA    C      0.914270000000     0.806470000000     0.236600000000     0          
H4QA     H      0.904100000000     0.811100000000     0.258700000000     0          
C11QA    C      0.896340000000     0.790770000000     0.209230000000     0          
N2QA     N      0.958390000000     0.805700000000     0.194300000000     0          
C12QA    C      0.948880000000     0.814790000000     0.228300000000     0          
H5QA     H      0.964400000000     0.825600000000     0.244300000000     0          
O4EC     O      0.846460000000     0.750410000000     0.201010000000     0          
C10EC    C      0.914270000000     0.763400000000     0.193530000000     0          
H4EC     H      0.904100000000     0.741300000000     0.188900000000     0          
C12EC    C      0.948880000000     0.771700000000     0.185210000000     0          
H5EC     H      0.964400000000     0.755700000000     0.174400000000     0          
O3SA     O      0.815920000000     0.746130000000     0.253870000000     0          
O1Y      O      0.782800000000     0.217200000000     0.782800000000     0          
O1QA     O      0.782800000000     0.782800000000     0.217200000000     0          
O2J      O      0.814570000000     0.723140000000     0.327860000000     0          
O2K      O      0.672140000000     0.814570000000     0.276860000000     0          
O2QA     O      0.827860000000     0.776860000000     0.314570000000     0          
O2QB     O      0.723140000000     0.814570000000     0.327860000000     0          
O2SB     O      0.814570000000     0.672140000000     0.276860000000     0          
O2TB     O      0.776860000000     0.827860000000     0.314570000000     0          
O2KC     O      0.827860000000     0.314570000000     0.776860000000     0          
O3RA     O      0.815920000000     0.253870000000     0.746130000000     0          
O4RA     O      0.798990000000     0.249590000000     0.846460000000     0          
O4TB     O      0.798990000000     0.846460000000     0.249590000000     0          
O4KC     O      0.846460000000     0.249590000000     0.798990000000     0          
Zr2?     Zr     0.299840000000     0.700160000000     0.235480000000     0          
O4QA     O      0.201010000000     0.846460000000     0.249590000000     0          
C9QA     C      0.212640000000     0.860430000000     0.212640000000     0          
C10QA    C      0.193530000000     0.914270000000     0.236600000000     0          
H4QA     H      0.188900000000     0.904100000000     0.258700000000     0          
C11QA    C      0.209230000000     0.896340000000     0.209230000000     0          
N2QA     N      0.194300000000     0.958390000000     0.194300000000     0          
C12QA    C      0.185210000000     0.948880000000     0.228300000000     0          
H5QA     H      0.174400000000     0.964400000000     0.244300000000     0          
O4EC     O      0.249590000000     0.846460000000     0.201010000000     0          
C10EC    C      0.236600000000     0.914270000000     0.193530000000     0          
H4EC     H      0.258700000000     0.904100000000     0.188900000000     0          
C12EC    C      0.228300000000     0.948880000000     0.185210000000     0          
H5EC     H      0.244300000000     0.964400000000     0.174400000000     0          
O1Y      O      0.782800000000     0.782800000000     0.782800000000     0          
O1QA     O      0.217200000000     0.782800000000     0.217200000000     0          
O2QA     O      0.223140000000     0.827860000000     0.314570000000     0          
O2TB     O      0.172140000000     0.776860000000     0.314570000000     0          
O2KC     O      0.685430000000     0.827860000000     0.776860000000     0          
O3RA     O      0.746130000000     0.815920000000     0.746130000000     0          
O4RA     O      0.750410000000     0.798990000000     0.846460000000     0          
O4TB     O      0.153540000000     0.798990000000     0.249590000000     0          
O4KC     O      0.750410000000     0.846460000000     0.798990000000     0          
Zr2?     Zr     0.299840000000     0.700160000000     0.764520000000     0          
O4D      O      0.298990000000     0.250410000000     0.653540000000     0          
C9D      C      0.287360000000     0.287360000000     0.639570000000     0          
C10D     C      0.306470000000     0.263400000000     0.585730000000     0          
H4D      H      0.311100000000     0.241300000000     0.595900000000     0          
C11D     C      0.290770000000     0.290770000000     0.603660000000     0          
N2D      N      0.305700000000     0.305700000000     0.541610000000     0          
C12D     C      0.314790000000     0.271700000000     0.551120000000     0          
H5D      H      0.325600000000     0.255700000000     0.535600000000     0          
O4LB     O      0.250410000000     0.298990000000     0.653540000000     0          
C10LB    C      0.263400000000     0.306470000000     0.585730000000     0          
H4LB     H      0.241300000000     0.311100000000     0.595900000000     0          
C12LB    C      0.271700000000     0.314790000000     0.551120000000     0          
H5LB     H      0.255700000000     0.325600000000     0.535600000000     0          
O4J      O      0.250410000000     0.701010000000     0.653540000000     0          
C9J      C      0.287360000000     0.712640000000     0.639570000000     0          
C10J     C      0.263400000000     0.693530000000     0.585730000000     0          
H4J      H      0.241300000000     0.688900000000     0.595900000000     0          
C11J     C      0.290770000000     0.709230000000     0.603660000000     0          
N2J      N      0.305700000000     0.694300000000     0.541610000000     0          
C12J     C      0.271700000000     0.685210000000     0.551120000000     0          
H5J      H      0.255700000000     0.674400000000     0.535600000000     0          
O4QB     O      0.298990000000     0.749590000000     0.653540000000     0          
C10QB    C      0.306470000000     0.736600000000     0.585730000000     0          
H4QB     H      0.311100000000     0.758700000000     0.595900000000     0          
C12QB    C      0.314790000000     0.728300000000     0.551120000000     0          
H5QB     H      0.325600000000     0.744300000000     0.535600000000     0          
O3K      O      0.246130000000     0.753870000000     0.684080000000     0          
O4K      O      0.346460000000     0.749590000000     0.701010000000     0          
C9K      C      0.360430000000     0.712640000000     0.712640000000     0          
C10K     C      0.414270000000     0.736600000000     0.693530000000     0          
H4K      H      0.404100000000     0.758700000000     0.688900000000     0          
C11K     C      0.396340000000     0.709230000000     0.709230000000     0          
N2K      N      0.458390000000     0.694300000000     0.694300000000     0          
C12K     C      0.448880000000     0.728300000000     0.685210000000     0          
H5K      H      0.464400000000     0.744300000000     0.674400000000     0          
C10OB    C      0.414270000000     0.693530000000     0.736600000000     0          
H4OB     H      0.404100000000     0.688900000000     0.758700000000     0          
C12OB    C      0.448880000000     0.685210000000     0.728300000000     0          
H5OB     H      0.464400000000     0.674400000000     0.744300000000     0          
O3V      O      0.246130000000     0.246130000000     0.684080000000     0          
O4V      O      0.250410000000     0.346460000000     0.701010000000     0          
C9V      C      0.287360000000     0.360430000000     0.712640000000     0          
C10V     C      0.263400000000     0.414270000000     0.693530000000     0          
H4V      H      0.241300000000     0.404100000000     0.688900000000     0          
C11V     C      0.290770000000     0.396340000000     0.709230000000     0          
N2V      N      0.305700000000     0.458390000000     0.694300000000     0          
C12V     C      0.271700000000     0.448880000000     0.685210000000     0          
H5V      H      0.255700000000     0.464400000000     0.674400000000     0          
C10DB    C      0.306470000000     0.414270000000     0.736600000000     0          
H4DB     H      0.311100000000     0.404100000000     0.758700000000     0          
C12DB    C      0.314790000000     0.448880000000     0.728300000000     0          
H5DB     H      0.325600000000     0.464400000000     0.744300000000     0          
Zr1QA    Zr     0.214350000000     0.785650000000     0.721100000000     0          
O3QA     O      0.253870000000     0.815920000000     0.746130000000     0          
O4QA     O      0.153540000000     0.798990000000     0.750410000000     0          
C9QA     C      0.139570000000     0.787360000000     0.787360000000     0          
C10QA    C      0.085730000000     0.806470000000     0.763400000000     0          
H4QA     H      0.095900000000     0.811100000000     0.741300000000     0          
C11QA    C      0.103660000000     0.790770000000     0.790770000000     0          
N2QA     N      0.041610000000     0.805700000000     0.805700000000     0          
C12QA    C      0.051120000000     0.814790000000     0.771700000000     0          
H5QA     H      0.035600000000     0.825600000000     0.755700000000     0          
C10EC    C      0.085730000000     0.763400000000     0.806470000000     0          
H4EC     H      0.095900000000     0.741300000000     0.811100000000     0          
C12EC    C      0.051120000000     0.771700000000     0.814790000000     0          
H5EC     H      0.035600000000     0.755700000000     0.825600000000     0          
C9I      C      0.712640000000     0.639570000000     0.712640000000     0          
C10AB    C      0.693530000000     0.585730000000     0.736600000000     0          
H4AB     H      0.688900000000     0.595900000000     0.758700000000     0          
C11I     C      0.709230000000     0.603660000000     0.709230000000     0          
N2I      N      0.694300000000     0.541610000000     0.694300000000     0          
C12AB    C      0.685210000000     0.551120000000     0.728300000000     0          
H5AB     H      0.674400000000     0.535600000000     0.744300000000     0          
O4I      O      0.749590000000     0.653540000000     0.701010000000     0          
C10I     C      0.736600000000     0.585730000000     0.693530000000     0          
H4I      H      0.758700000000     0.595900000000     0.688900000000     0          
C12I     C      0.728300000000     0.551120000000     0.685210000000     0          
H5I      H      0.744300000000     0.535600000000     0.674400000000     0          
Zr1FA    Zr     0.214350000000     0.214350000000     0.721100000000     0          
O2D      O      0.276860000000     0.185430000000     0.672140000000     0          
O2J      O      0.185430000000     0.723140000000     0.672140000000     0          
O2K      O      0.327860000000     0.814570000000     0.723140000000     0          
O2V      O      0.185430000000     0.327860000000     0.723140000000     0          
O2QA     O      0.172140000000     0.776860000000     0.685430000000     0          
O2JB     O      0.327860000000     0.185430000000     0.723140000000     0          
O2LB     O      0.185430000000     0.276860000000     0.672140000000     0          
O2QB     O      0.276860000000     0.814570000000     0.672140000000     0          
O2SB     O      0.185430000000     0.672140000000     0.723140000000     0          
O2TB     O      0.223140000000     0.827860000000     0.685430000000     0          
O2KC     O      0.172140000000     0.314570000000     0.223140000000     0          
O3FA     O      0.184080000000     0.253870000000     0.746130000000     0          
O4RA     O      0.201010000000     0.249590000000     0.153540000000     0          
O4TB     O      0.201010000000     0.846460000000     0.750410000000     0          
Zr2?     Zr     0.299840000000     0.299840000000     0.764520000000     0          
O4D      O      0.749590000000     0.298990000000     0.653540000000     0          
C9D      C      0.712640000000     0.287360000000     0.639570000000     0          
C10D     C      0.736600000000     0.306470000000     0.585730000000     0          
H4D      H      0.758700000000     0.311100000000     0.595900000000     0          
C11D     C      0.709230000000     0.290770000000     0.603660000000     0          
N2D      N      0.694300000000     0.305700000000     0.541610000000     0          
C12D     C      0.728300000000     0.314790000000     0.551120000000     0          
H5D      H      0.744300000000     0.325600000000     0.535600000000     0          
O4LB     O      0.701010000000     0.250410000000     0.653540000000     0          
C10LB    C      0.693530000000     0.263400000000     0.585730000000     0          
H4LB     H      0.688900000000     0.241300000000     0.595900000000     0          
C12LB    C      0.685210000000     0.271700000000     0.551120000000     0          
H5LB     H      0.674400000000     0.255700000000     0.535600000000     0          
O3V      O      0.753870000000     0.246130000000     0.684080000000     0          
O4V      O      0.653540000000     0.250410000000     0.701010000000     0          
C9V      C      0.639570000000     0.287360000000     0.712640000000     0          
C10V     C      0.585730000000     0.263400000000     0.693530000000     0          
H4V      H      0.595900000000     0.241300000000     0.688900000000     0          
C11V     C      0.603660000000     0.290770000000     0.709230000000     0          
N2V      N      0.541610000000     0.305700000000     0.694300000000     0          
C12V     C      0.551120000000     0.271700000000     0.685210000000     0          
H5V      H      0.535600000000     0.255700000000     0.674400000000     0          
C10DB    C      0.585730000000     0.306470000000     0.736600000000     0          
H4DB     H      0.595900000000     0.311100000000     0.758700000000     0          
C12DB    C      0.551120000000     0.314790000000     0.728300000000     0          
H5DB     H      0.535600000000     0.325600000000     0.744300000000     0          
O4QA     O      0.201010000000     0.153540000000     0.750410000000     0          
C9QA     C      0.212640000000     0.139570000000     0.787360000000     0          
C10QA    C      0.193530000000     0.085730000000     0.763400000000     0          
H4QA     H      0.188900000000     0.095900000000     0.741300000000     0          
C11QA    C      0.209230000000     0.103660000000     0.790770000000     0          
N2QA     N      0.194300000000     0.041610000000     0.805700000000     0          
C12QA    C      0.185210000000     0.051120000000     0.771700000000     0          
H5QA     H      0.174400000000     0.035600000000     0.755700000000     0          
C10EC    C      0.236600000000     0.085730000000     0.806470000000     0          
H4EC     H      0.258700000000     0.095900000000     0.811100000000     0          
C12EC    C      0.228300000000     0.051120000000     0.814790000000     0          
H5EC     H      0.244300000000     0.035600000000     0.825600000000     0          
Zr1FA    Zr     0.785650000000     0.214350000000     0.721100000000     0          
O2D      O      0.814570000000     0.276860000000     0.672140000000     0          
O2V      O      0.672140000000     0.185430000000     0.723140000000     0          
O2QA     O      0.223140000000     0.172140000000     0.685430000000     0          
O2JB     O      0.814570000000     0.327860000000     0.723140000000     0          
O2LB     O      0.723140000000     0.185430000000     0.672140000000     0          
O2TB     O      0.172140000000     0.223140000000     0.685430000000     0          
O2KC     O      0.685430000000     0.172140000000     0.223140000000     0          
O3FA     O      0.746130000000     0.184080000000     0.746130000000     0          
O4RA     O      0.750410000000     0.201010000000     0.153540000000     0          
O4TB     O      0.153540000000     0.201010000000     0.750410000000     0          
Zr2?     Zr     0.700160000000     0.299840000000     0.764520000000     0          
O4D      O      0.701010000000     0.749590000000     0.653540000000     0          
C9D      C      0.712640000000     0.712640000000     0.639570000000     0          
C10D     C      0.693530000000     0.736600000000     0.585730000000     0          
H4D      H      0.688900000000     0.758700000000     0.595900000000     0          
C11D     C      0.709230000000     0.709230000000     0.603660000000     0          
N2D      N      0.694300000000     0.694300000000     0.541610000000     0          
C12D     C      0.685210000000     0.728300000000     0.551120000000     0          
H5D      H      0.674400000000     0.744300000000     0.535600000000     0          
O4LB     O      0.749590000000     0.701010000000     0.653540000000     0          
C10LB    C      0.736600000000     0.693530000000     0.585730000000     0          
H4LB     H      0.758700000000     0.688900000000     0.595900000000     0          
C12LB    C      0.728300000000     0.685210000000     0.551120000000     0          
H5LB     H      0.744300000000     0.674400000000     0.535600000000     0          
O3V      O      0.753870000000     0.753870000000     0.684080000000     0          
O4QA     O      0.846460000000     0.201010000000     0.750410000000     0          
C9QA     C      0.860430000000     0.212640000000     0.787360000000     0          
C10QA    C      0.914270000000     0.193530000000     0.763400000000     0          
H4QA     H      0.904100000000     0.188900000000     0.741300000000     0          
C11QA    C      0.896340000000     0.209230000000     0.790770000000     0          
N2QA     N      0.958390000000     0.194300000000     0.805700000000     0          
C12QA    C      0.948880000000     0.185210000000     0.771700000000     0          
H5QA     H      0.964400000000     0.174400000000     0.755700000000     0          
C10EC    C      0.914270000000     0.236600000000     0.806470000000     0          
H4EC     H      0.904100000000     0.258700000000     0.811100000000     0          
C12EC    C      0.948880000000     0.228300000000     0.814790000000     0          
H5EC     H      0.964400000000     0.244300000000     0.825600000000     0          
Zr1FA    Zr     0.785650000000     0.785650000000     0.721100000000     0          
O2D      O      0.723140000000     0.814570000000     0.672140000000     0          
O2V      O      0.814570000000     0.672140000000     0.723140000000     0          
O2QA     O      0.827860000000     0.223140000000     0.685430000000     0          
O2JB     O      0.672140000000     0.814570000000     0.723140000000     0          
O2LB     O      0.814570000000     0.723140000000     0.672140000000     0          
O2TB     O      0.776860000000     0.172140000000     0.685430000000     0          
O2KC     O      0.827860000000     0.685430000000     0.223140000000     0          
O3FA     O      0.815920000000     0.746130000000     0.746130000000     0          
O4RA     O      0.798990000000     0.750410000000     0.153540000000     0          
O4TB     O      0.798990000000     0.153540000000     0.750410000000     0          
Zr2?     Zr     0.700160000000     0.700160000000     0.764520000000     0          
O4QA     O      0.798990000000     0.846460000000     0.750410000000     0          
C9QA     C      0.787360000000     0.860430000000     0.787360000000     0          
C10QA    C      0.806470000000     0.914270000000     0.763400000000     0          
H4QA     H      0.811100000000     0.904100000000     0.741300000000     0          
C11QA    C      0.790770000000     0.896340000000     0.790770000000     0          
N2QA     N      0.805700000000     0.958390000000     0.805700000000     0          
C12QA    C      0.814790000000     0.948880000000     0.771700000000     0          
H5QA     H      0.825600000000     0.964400000000     0.755700000000     0          
C10EC    C      0.763400000000     0.914270000000     0.806470000000     0          
H4EC     H      0.741300000000     0.904100000000     0.811100000000     0          
C12EC    C      0.771700000000     0.948880000000     0.814790000000     0          
H5EC     H      0.755700000000     0.964400000000     0.825600000000     0          
O2QA     O      0.776860000000     0.827860000000     0.685430000000     0          
O2TB     O      0.827860000000     0.776860000000     0.685430000000     0          
O2KC     O      0.314570000000     0.827860000000     0.223140000000     0          
O4RA     O      0.249590000000     0.798990000000     0.153540000000     0          
O4TB     O      0.846460000000     0.798990000000     0.750410000000     0          
Ni1      Ni     0.000000000000     0.250000000000     0.500000000000     0          
N1       N      0.050220000000     0.248160000000     0.500000000000     0          
C1       C      0.090280000000     0.250000000000     0.409720000000     0          
C2       C      0.062790000000     0.250000000000     0.437210000000     0          
C3       C      0.168710000000     0.250000000000     0.331290000000     0          
C4       C      0.072290000000     0.244460000000     0.471510000000     0          
C5       C      0.107100000000     0.238830000000     0.483060000000     0          
H1       H      0.126900000000     0.235600000000     0.468500000000     0          
C6       C      0.113170000000     0.276900000000     0.406820000000     0          
H2       H      0.112700000000     0.295400000000     0.423300000000     0          
C7       C      0.136950000000     0.277290000000     0.380060000000     0          
H3       H      0.151000000000     0.297400000000     0.376300000000     0          
C8       C      0.140250000000     0.250000000000     0.359750000000     0          
Zr2?     Zr     0.235480000000     0.299840000000     0.299840000000     0          
N1SA     N      0.000000000000     0.251840000000     0.449780000000     0          
C4SA     C      0.028490000000     0.255540000000     0.427710000000     0          
C5SA     C      0.016940000000     0.261170000000     0.392900000000     0          
H1SA     H      0.031500000000     0.264400000000     0.373100000000     0          
C6SA     C      0.093180000000     0.223100000000     0.386830000000     0          
H2SA     H      0.076700000000     0.204600000000     0.387300000000     0          
C7SA     C      0.119940000000     0.222710000000     0.363050000000     0          
H3SA     H      0.123700000000     0.202600000000     0.349000000000     0          
C1DB     C      0.090280000000     0.250000000000     0.590280000000     0          
C2DB     C      0.062790000000     0.250000000000     0.562790000000     0          
C3DB     C      0.168710000000     0.250000000000     0.668710000000     0          
C4DB     C      0.072290000000     0.244460000000     0.528490000000     0          
C5DB     C      0.107100000000     0.238830000000     0.516940000000     0          
H1DB     H      0.126900000000     0.235600000000     0.531500000000     0          
C6DB     C      0.113170000000     0.276900000000     0.593180000000     0          
H2DB     H      0.112700000000     0.295400000000     0.576700000000     0          
C7DB     C      0.136950000000     0.277290000000     0.619940000000     0          
H3DB     H      0.151000000000     0.297400000000     0.623700000000     0          
C8DB     C      0.140250000000     0.250000000000     0.640250000000     0          
N1RA     N      0.000000000000     0.251840000000     0.550220000000     0          
C4XB     C      0.028490000000     0.255540000000     0.572290000000     0          
C5XB     C      0.016940000000     0.261170000000     0.607100000000     0          
H1XB     H      0.031500000000     0.264400000000     0.626900000000     0          
C6XB     C      0.093180000000     0.223100000000     0.613170000000     0          
H2XB     H      0.076700000000     0.204600000000     0.612700000000     0          
C7XB     C      0.119940000000     0.222710000000     0.636950000000     0          
H3XB     H      0.123700000000     0.202600000000     0.651000000000     0          
C1XA     C      0.909720000000     0.250000000000     0.409720000000     0          
C2XA     C      0.937210000000     0.250000000000     0.437210000000     0          
C3XA     C      0.831290000000     0.250000000000     0.331290000000     0          
C4ZB     C      0.971510000000     0.255540000000     0.427710000000     0          
C5ZB     C      0.983060000000     0.261170000000     0.392900000000     0          
H1ZB     H      0.968500000000     0.264400000000     0.373100000000     0          
C6ZB     C      0.906820000000     0.223100000000     0.386830000000     0          
H2ZB     H      0.923300000000     0.204600000000     0.387300000000     0          
C7ZB     C      0.880060000000     0.222710000000     0.363050000000     0          
H3ZB     H      0.876300000000     0.202600000000     0.349000000000     0          
C8XA     C      0.859750000000     0.250000000000     0.359750000000     0          
C1E      C      0.909720000000     0.250000000000     0.590280000000     0          
C2E      C      0.937210000000     0.250000000000     0.562790000000     0          
C3E      C      0.831290000000     0.250000000000     0.668710000000     0          
C4RA     C      0.971510000000     0.255540000000     0.572290000000     0          
C5RA     C      0.983060000000     0.261170000000     0.607100000000     0          
H1RA     H      0.968500000000     0.264400000000     0.626900000000     0          
C6RA     C      0.906820000000     0.223100000000     0.613170000000     0          
H2RA     H      0.923300000000     0.204600000000     0.612700000000     0          
C7RA     C      0.880060000000     0.222710000000     0.636950000000     0          
H3RA     H      0.876300000000     0.202600000000     0.651000000000     0          
C8E      C      0.859750000000     0.250000000000     0.640250000000     0          
N1E      N      0.949780000000     0.248160000000     0.500000000000     0          
C4XA     C      0.927710000000     0.244460000000     0.471510000000     0          
C5XA     C      0.892900000000     0.238830000000     0.483060000000     0          
H1XA     H      0.873100000000     0.235600000000     0.468500000000     0          
C6XA     C      0.886830000000     0.276900000000     0.406820000000     0          
H2XA     H      0.887300000000     0.295400000000     0.423300000000     0          
C7XA     C      0.863050000000     0.277290000000     0.380060000000     0          
H3XA     H      0.849000000000     0.297400000000     0.376300000000     0          
C4E      C      0.927710000000     0.244460000000     0.528490000000     0          
C5E      C      0.892900000000     0.238830000000     0.516940000000     0          
H1E      H      0.873100000000     0.235600000000     0.531500000000     0          
C6E      C      0.886830000000     0.276900000000     0.593180000000     0          
H2E      H      0.887300000000     0.295400000000     0.576700000000     0          
C7E      C      0.863050000000     0.277290000000     0.619940000000     0          
H3E      H      0.849000000000     0.297400000000     0.623700000000     0          
Ni1A     Ni     0.000000000000     0.500000000000     0.250000000000     0          
N1A      N      0.050220000000     0.500000000000     0.248160000000     0          
C1A      C      0.090280000000     0.590280000000     0.250000000000     0          
C2A      C      0.062790000000     0.562790000000     0.250000000000     0          
C3A      C      0.168710000000     0.668710000000     0.250000000000     0          
C4A      C      0.072290000000     0.528490000000     0.244460000000     0          
C5A      C      0.107100000000     0.516940000000     0.238830000000     0          
H1A      H      0.126900000000     0.531500000000     0.235600000000     0          
C6A      C      0.113170000000     0.593180000000     0.276900000000     0          
H2A      H      0.112700000000     0.576700000000     0.295400000000     0          
C7A      C      0.136950000000     0.619940000000     0.277290000000     0          
H3A      H      0.151000000000     0.623700000000     0.297400000000     0          
C8A      C      0.140250000000     0.640250000000     0.250000000000     0          
N1KA     N      0.000000000000     0.550220000000     0.251840000000     0          
O2KA     O      0.172140000000     0.685430000000     0.223140000000     0          
C4KA     C      0.028490000000     0.572290000000     0.255540000000     0          
C5KA     C      0.016940000000     0.607100000000     0.261170000000     0          
H1KA     H      0.031500000000     0.626900000000     0.264400000000     0          
C6KA     C      0.093180000000     0.613170000000     0.223100000000     0          
H2KA     H      0.076700000000     0.612700000000     0.204600000000     0          
C7KA     C      0.119940000000     0.636950000000     0.222710000000     0          
H3KA     H      0.123700000000     0.651000000000     0.202600000000     0          
C1OB     C      0.090280000000     0.409720000000     0.250000000000     0          
C2OB     C      0.062790000000     0.437210000000     0.250000000000     0          
C3OB     C      0.168710000000     0.331290000000     0.250000000000     0          
C4OB     C      0.072290000000     0.471510000000     0.244460000000     0          
C5OB     C      0.107100000000     0.483060000000     0.238830000000     0          
H1OB     H      0.126900000000     0.468500000000     0.235600000000     0          
C6OB     C      0.113170000000     0.406820000000     0.276900000000     0          
H2OB     H      0.112700000000     0.423300000000     0.295400000000     0          
C7OB     C      0.136950000000     0.380060000000     0.277290000000     0          
H3OB     H      0.151000000000     0.376300000000     0.297400000000     0          
C8OB     C      0.140250000000     0.359750000000     0.250000000000     0          
N1MA     N      0.000000000000     0.449780000000     0.251840000000     0          
C4DC     C      0.028490000000     0.427710000000     0.255540000000     0          
C5DC     C      0.016940000000     0.392900000000     0.261170000000     0          
H1DC     H      0.031500000000     0.373100000000     0.264400000000     0          
C6DC     C      0.093180000000     0.386830000000     0.223100000000     0          
H2DC     H      0.076700000000     0.387300000000     0.204600000000     0          
C7DC     C      0.119940000000     0.363050000000     0.222710000000     0          
H3DC     H      0.123700000000     0.349000000000     0.202600000000     0          
C1YA     C      0.909720000000     0.590280000000     0.250000000000     0          
C2YA     C      0.937210000000     0.562790000000     0.250000000000     0          
C3YA     C      0.831290000000     0.668710000000     0.250000000000     0          
C4JC     C      0.971510000000     0.572290000000     0.255540000000     0          
C5JC     C      0.983060000000     0.607100000000     0.261170000000     0          
H1JC     H      0.968500000000     0.626900000000     0.264400000000     0          
C6JC     C      0.906820000000     0.613170000000     0.223100000000     0          
H2JC     H      0.923300000000     0.612700000000     0.204600000000     0          
C7JC     C      0.880060000000     0.636950000000     0.222710000000     0          
H3JC     H      0.876300000000     0.651000000000     0.202600000000     0          
C8YA     C      0.859750000000     0.640250000000     0.250000000000     0          
O2MA     O      0.827860000000     0.314570000000     0.223140000000     0          
C1R      C      0.909720000000     0.409720000000     0.250000000000     0          
C2R      C      0.937210000000     0.437210000000     0.250000000000     0          
C3R      C      0.831290000000     0.331290000000     0.250000000000     0          
C4MA     C      0.971510000000     0.427710000000     0.255540000000     0          
C5MA     C      0.983060000000     0.392900000000     0.261170000000     0          
H1MA     H      0.968500000000     0.373100000000     0.264400000000     0          
C6MA     C      0.906820000000     0.386830000000     0.223100000000     0          
H2MA     H      0.923300000000     0.387300000000     0.204600000000     0          
C7MA     C      0.880060000000     0.363050000000     0.222710000000     0          
H3MA     H      0.876300000000     0.349000000000     0.202600000000     0          
C8R      C      0.859750000000     0.359750000000     0.250000000000     0          
N1R      N      0.949780000000     0.500000000000     0.248160000000     0          
C4YA     C      0.927710000000     0.528490000000     0.244460000000     0          
C5YA     C      0.892900000000     0.516940000000     0.238830000000     0          
H1YA     H      0.873100000000     0.531500000000     0.235600000000     0          
C6YA     C      0.886830000000     0.593180000000     0.276900000000     0          
H2YA     H      0.887300000000     0.576700000000     0.295400000000     0          
C7YA     C      0.863050000000     0.619940000000     0.277290000000     0          
H3YA     H      0.849000000000     0.623700000000     0.297400000000     0          
C4R      C      0.927710000000     0.471510000000     0.244460000000     0          
C5R      C      0.892900000000     0.483060000000     0.238830000000     0          
H1R      H      0.873100000000     0.468500000000     0.235600000000     0          
C6R      C      0.886830000000     0.406820000000     0.276900000000     0          
H2R      H      0.887300000000     0.423300000000     0.295400000000     0          
C7R      C      0.863050000000     0.380060000000     0.277290000000     0          
H3R      H      0.849000000000     0.376300000000     0.297400000000     0          
Ni1C     Ni     0.000000000000     0.500000000000     0.750000000000     0          
N1C      N      0.050220000000     0.500000000000     0.751840000000     0          
C1C      C      0.090280000000     0.409720000000     0.750000000000     0          
C2C      C      0.062790000000     0.437210000000     0.750000000000     0          
C3C      C      0.168710000000     0.331290000000     0.750000000000     0          
C4C      C      0.072290000000     0.471510000000     0.755540000000     0          
C5C      C      0.107100000000     0.483060000000     0.761170000000     0          
H1C      H      0.126900000000     0.468500000000     0.764400000000     0          
C6C      C      0.113170000000     0.406820000000     0.723100000000     0          
H2C      H      0.112700000000     0.423300000000     0.704600000000     0          
C7C      C      0.136950000000     0.380060000000     0.722710000000     0          
H3C      H      0.151000000000     0.376300000000     0.702600000000     0          
C8C      C      0.140250000000     0.359750000000     0.750000000000     0          
N1NA     N      0.000000000000     0.449780000000     0.748160000000     0          
O2NA     O      0.172140000000     0.314570000000     0.776860000000     0          
C4NA     C      0.028490000000     0.427710000000     0.744460000000     0          
C5NA     C      0.016940000000     0.392900000000     0.738830000000     0          
H1NA     H      0.031500000000     0.373100000000     0.735600000000     0          
C6NA     C      0.093180000000     0.386830000000     0.776900000000     0          
H2NA     H      0.076700000000     0.387300000000     0.795400000000     0          
C7NA     C      0.119940000000     0.363050000000     0.777290000000     0          
H3NA     H      0.123700000000     0.349000000000     0.797400000000     0          
C1NB     C      0.090280000000     0.590280000000     0.750000000000     0          
C2NB     C      0.062790000000     0.562790000000     0.750000000000     0          
C3NB     C      0.168710000000     0.668710000000     0.750000000000     0          
C4NB     C      0.072290000000     0.528490000000     0.755540000000     0          
C5NB     C      0.107100000000     0.516940000000     0.761170000000     0          
H1NB     H      0.126900000000     0.531500000000     0.764400000000     0          
C6NB     C      0.113170000000     0.593180000000     0.723100000000     0          
H2NB     H      0.112700000000     0.576700000000     0.704600000000     0          
C7NB     C      0.136950000000     0.619940000000     0.722710000000     0          
H3NB     H      0.151000000000     0.623700000000     0.702600000000     0          
C8NB     C      0.140250000000     0.640250000000     0.750000000000     0          
N1HA     N      0.000000000000     0.550220000000     0.748160000000     0          
C4IC     C      0.028490000000     0.572290000000     0.744460000000     0          
C5IC     C      0.016940000000     0.607100000000     0.738830000000     0          
H1IC     H      0.031500000000     0.626900000000     0.735600000000     0          
C6IC     C      0.093180000000     0.613170000000     0.776900000000     0          
H2IC     H      0.076700000000     0.612700000000     0.795400000000     0          
C7IC     C      0.119940000000     0.636950000000     0.777290000000     0          
H3IC     H      0.123700000000     0.651000000000     0.797400000000     0          
C1WA     C      0.909720000000     0.409720000000     0.750000000000     0          
C2WA     C      0.937210000000     0.437210000000     0.750000000000     0          
C3WA     C      0.831290000000     0.331290000000     0.750000000000     0          
C4GC     C      0.971510000000     0.427710000000     0.744460000000     0          
C5GC     C      0.983060000000     0.392900000000     0.738830000000     0          
H1GC     H      0.968500000000     0.373100000000     0.735600000000     0          
C6GC     C      0.906820000000     0.386830000000     0.776900000000     0          
H2GC     H      0.923300000000     0.387300000000     0.795400000000     0          
C7GC     C      0.880060000000     0.363050000000     0.777290000000     0          
H3GC     H      0.876300000000     0.349000000000     0.797400000000     0          
C8WA     C      0.859750000000     0.359750000000     0.750000000000     0          
O2HA     O      0.827860000000     0.685430000000     0.776860000000     0          
C1S      C      0.909720000000     0.590280000000     0.750000000000     0          
C2S      C      0.937210000000     0.562790000000     0.750000000000     0          
C3S      C      0.831290000000     0.668710000000     0.750000000000     0          
C4HA     C      0.971510000000     0.572290000000     0.744460000000     0          
C5HA     C      0.983060000000     0.607100000000     0.738830000000     0          
H1HA     H      0.968500000000     0.626900000000     0.735600000000     0          
C6HA     C      0.906820000000     0.613170000000     0.776900000000     0          
H2HA     H      0.923300000000     0.612700000000     0.795400000000     0          
C7HA     C      0.880060000000     0.636950000000     0.777290000000     0          
H3HA     H      0.876300000000     0.651000000000     0.797400000000     0          
C8S      C      0.859750000000     0.640250000000     0.750000000000     0          
N1S      N      0.949780000000     0.500000000000     0.751840000000     0          
C4WA     C      0.927710000000     0.471510000000     0.755540000000     0          
C5WA     C      0.892900000000     0.483060000000     0.761170000000     0          
H1WA     H      0.873100000000     0.468500000000     0.764400000000     0          
C6WA     C      0.886830000000     0.406820000000     0.723100000000     0          
H2WA     H      0.887300000000     0.423300000000     0.704600000000     0          
C7WA     C      0.863050000000     0.380060000000     0.722710000000     0          
H3WA     H      0.849000000000     0.376300000000     0.702600000000     0          
C4S      C      0.927710000000     0.528490000000     0.755540000000     0          
C5S      C      0.892900000000     0.516940000000     0.761170000000     0          
H1S      H      0.873100000000     0.531500000000     0.764400000000     0          
C6S      C      0.886830000000     0.593180000000     0.723100000000     0          
H2S      H      0.887300000000     0.576700000000     0.704600000000     0          
C7S      C      0.863050000000     0.619940000000     0.722710000000     0          
H3S      H      0.849000000000     0.623700000000     0.702600000000     0          
O4QA     O      0.249590000000     0.153540000000     0.201010000000     0          
C9QA     C      0.212640000000     0.139570000000     0.212640000000     0          
C10QA    C      0.236600000000     0.085730000000     0.193530000000     0          
H4QA     H      0.258700000000     0.095900000000     0.188900000000     0          
C11QA    C      0.209230000000     0.103660000000     0.209230000000     0          
N2QA     N      0.194300000000     0.041610000000     0.194300000000     0          
C12QA    C      0.228300000000     0.051120000000     0.185210000000     0          
H5QA     H      0.244300000000     0.035600000000     0.174400000000     0          
C10EC    C      0.193530000000     0.085730000000     0.236600000000     0          
H4EC     H      0.188900000000     0.095900000000     0.258700000000     0          
C12EC    C      0.185210000000     0.051120000000     0.228300000000     0          
H5EC     H      0.174400000000     0.035600000000     0.244300000000     0          
O2QA     O      0.314570000000     0.172140000000     0.223140000000     0          
O4TB     O      0.249590000000     0.201010000000     0.153540000000     0          
Ni1      Ni     0.750000000000     0.000000000000     0.500000000000     0          
N1       N      0.751840000000     0.050220000000     0.500000000000     0          
C1       C      0.750000000000     0.090280000000     0.409720000000     0          
C2       C      0.750000000000     0.062790000000     0.437210000000     0          
C3       C      0.750000000000     0.168710000000     0.331290000000     0          
C4       C      0.755540000000     0.072290000000     0.471510000000     0          
C5       C      0.761170000000     0.107100000000     0.483060000000     0          
H1       H      0.764400000000     0.126900000000     0.468500000000     0          
C6       C      0.723100000000     0.113170000000     0.406820000000     0          
H2       H      0.704600000000     0.112700000000     0.423300000000     0          
C7       C      0.722710000000     0.136950000000     0.380060000000     0          
H3       H      0.702600000000     0.151000000000     0.376300000000     0          
C8       C      0.750000000000     0.140250000000     0.359750000000     0          
Zr2?     Zr     0.700160000000     0.235480000000     0.299840000000     0          
N1SA     N      0.748160000000     0.000000000000     0.449780000000     0          
C4SA     C      0.744460000000     0.028490000000     0.427710000000     0          
C5SA     C      0.738830000000     0.016940000000     0.392900000000     0          
H1SA     H      0.735600000000     0.031500000000     0.373100000000     0          
C6SA     C      0.776900000000     0.093180000000     0.386830000000     0          
H2SA     H      0.795400000000     0.076700000000     0.387300000000     0          
C7SA     C      0.777290000000     0.119940000000     0.363050000000     0          
H3SA     H      0.797400000000     0.123700000000     0.349000000000     0          
C1DB     C      0.750000000000     0.090280000000     0.590280000000     0          
C2DB     C      0.750000000000     0.062790000000     0.562790000000     0          
C3DB     C      0.750000000000     0.168710000000     0.668710000000     0          
C4DB     C      0.755540000000     0.072290000000     0.528490000000     0          
C5DB     C      0.761170000000     0.107100000000     0.516940000000     0          
H1DB     H      0.764400000000     0.126900000000     0.531500000000     0          
C6DB     C      0.723100000000     0.113170000000     0.593180000000     0          
H2DB     H      0.704600000000     0.112700000000     0.576700000000     0          
C7DB     C      0.722710000000     0.136950000000     0.619940000000     0          
H3DB     H      0.702600000000     0.151000000000     0.623700000000     0          
C8DB     C      0.750000000000     0.140250000000     0.640250000000     0          
N1RA     N      0.748160000000     0.000000000000     0.550220000000     0          
C4XB     C      0.744460000000     0.028490000000     0.572290000000     0          
C5XB     C      0.738830000000     0.016940000000     0.607100000000     0          
H1XB     H      0.735600000000     0.031500000000     0.626900000000     0          
C6XB     C      0.776900000000     0.093180000000     0.613170000000     0          
H2XB     H      0.795400000000     0.076700000000     0.612700000000     0          
C7XB     C      0.777290000000     0.119940000000     0.636950000000     0          
H3XB     H      0.797400000000     0.123700000000     0.651000000000     0          
C1XA     C      0.750000000000     0.909720000000     0.409720000000     0          
C2XA     C      0.750000000000     0.937210000000     0.437210000000     0          
C3XA     C      0.750000000000     0.831290000000     0.331290000000     0          
C4ZB     C      0.744460000000     0.971510000000     0.427710000000     0          
C5ZB     C      0.738830000000     0.983060000000     0.392900000000     0          
H1ZB     H      0.735600000000     0.968500000000     0.373100000000     0          
C6ZB     C      0.776900000000     0.906820000000     0.386830000000     0          
H2ZB     H      0.795400000000     0.923300000000     0.387300000000     0          
C7ZB     C      0.777290000000     0.880060000000     0.363050000000     0          
H3ZB     H      0.797400000000     0.876300000000     0.349000000000     0          
C8XA     C      0.750000000000     0.859750000000     0.359750000000     0          
C1E      C      0.750000000000     0.909720000000     0.590280000000     0          
C2E      C      0.750000000000     0.937210000000     0.562790000000     0          
C3E      C      0.750000000000     0.831290000000     0.668710000000     0          
C4RA     C      0.744460000000     0.971510000000     0.572290000000     0          
C5RA     C      0.738830000000     0.983060000000     0.607100000000     0          
H1RA     H      0.735600000000     0.968500000000     0.626900000000     0          
C6RA     C      0.776900000000     0.906820000000     0.613170000000     0          
H2RA     H      0.795400000000     0.923300000000     0.612700000000     0          
C7RA     C      0.777290000000     0.880060000000     0.636950000000     0          
H3RA     H      0.797400000000     0.876300000000     0.651000000000     0          
C8E      C      0.750000000000     0.859750000000     0.640250000000     0          
N1E      N      0.751840000000     0.949780000000     0.500000000000     0          
C4XA     C      0.755540000000     0.927710000000     0.471510000000     0          
C5XA     C      0.761170000000     0.892900000000     0.483060000000     0          
H1XA     H      0.764400000000     0.873100000000     0.468500000000     0          
C6XA     C      0.723100000000     0.886830000000     0.406820000000     0          
H2XA     H      0.704600000000     0.887300000000     0.423300000000     0          
C7XA     C      0.722710000000     0.863050000000     0.380060000000     0          
H3XA     H      0.702600000000     0.849000000000     0.376300000000     0          
C4E      C      0.755540000000     0.927710000000     0.528490000000     0          
C5E      C      0.761170000000     0.892900000000     0.516940000000     0          
H1E      H      0.764400000000     0.873100000000     0.531500000000     0          
C6E      C      0.723100000000     0.886830000000     0.593180000000     0          
H2E      H      0.704600000000     0.887300000000     0.576700000000     0          
C7E      C      0.722710000000     0.863050000000     0.619940000000     0          
H3E      H      0.702600000000     0.849000000000     0.623700000000     0          
Ni1A     Ni     0.500000000000     0.000000000000     0.250000000000     0          
N1A      N      0.500000000000     0.050220000000     0.248160000000     0          
C1A      C      0.409720000000     0.090280000000     0.250000000000     0          
C2A      C      0.437210000000     0.062790000000     0.250000000000     0          
C3A      C      0.331290000000     0.168710000000     0.250000000000     0          
C4A      C      0.471510000000     0.072290000000     0.244460000000     0          
C5A      C      0.483060000000     0.107100000000     0.238830000000     0          
H1A      H      0.468500000000     0.126900000000     0.235600000000     0          
C6A      C      0.406820000000     0.113170000000     0.276900000000     0          
H2A      H      0.423300000000     0.112700000000     0.295400000000     0          
C7A      C      0.380060000000     0.136950000000     0.277290000000     0          
H3A      H      0.376300000000     0.151000000000     0.297400000000     0          
C8A      C      0.359750000000     0.140250000000     0.250000000000     0          
N1KA     N      0.449780000000     0.000000000000     0.251840000000     0          
C4KA     C      0.427710000000     0.028490000000     0.255540000000     0          
C5KA     C      0.392900000000     0.016940000000     0.261170000000     0          
H1KA     H      0.373100000000     0.031500000000     0.264400000000     0          
C6KA     C      0.386830000000     0.093180000000     0.223100000000     0          
H2KA     H      0.387300000000     0.076700000000     0.204600000000     0          
C7KA     C      0.363050000000     0.119940000000     0.222710000000     0          
H3KA     H      0.349000000000     0.123700000000     0.202600000000     0          
C1OB     C      0.590280000000     0.090280000000     0.250000000000     0          
C2OB     C      0.562790000000     0.062790000000     0.250000000000     0          
C3OB     C      0.668710000000     0.168710000000     0.250000000000     0          
C4OB     C      0.528490000000     0.072290000000     0.244460000000     0          
C5OB     C      0.516940000000     0.107100000000     0.238830000000     0          
H1OB     H      0.531500000000     0.126900000000     0.235600000000     0          
C6OB     C      0.593180000000     0.113170000000     0.276900000000     0          
H2OB     H      0.576700000000     0.112700000000     0.295400000000     0          
C7OB     C      0.619940000000     0.136950000000     0.277290000000     0          
H3OB     H      0.623700000000     0.151000000000     0.297400000000     0          
C8OB     C      0.640250000000     0.140250000000     0.250000000000     0          
N1MA     N      0.550220000000     0.000000000000     0.251840000000     0          
C4DC     C      0.572290000000     0.028490000000     0.255540000000     0          
C5DC     C      0.607100000000     0.016940000000     0.261170000000     0          
H1DC     H      0.626900000000     0.031500000000     0.264400000000     0          
C6DC     C      0.613170000000     0.093180000000     0.223100000000     0          
H2DC     H      0.612700000000     0.076700000000     0.204600000000     0          
C7DC     C      0.636950000000     0.119940000000     0.222710000000     0          
H3DC     H      0.651000000000     0.123700000000     0.202600000000     0          
C1YA     C      0.409720000000     0.909720000000     0.250000000000     0          
C2YA     C      0.437210000000     0.937210000000     0.250000000000     0          
C3YA     C      0.331290000000     0.831290000000     0.250000000000     0          
C4JC     C      0.427710000000     0.971510000000     0.255540000000     0          
C5JC     C      0.392900000000     0.983060000000     0.261170000000     0          
H1JC     H      0.373100000000     0.968500000000     0.264400000000     0          
C6JC     C      0.386830000000     0.906820000000     0.223100000000     0          
H2JC     H      0.387300000000     0.923300000000     0.204600000000     0          
C7JC     C      0.363050000000     0.880060000000     0.222710000000     0          
H3JC     H      0.349000000000     0.876300000000     0.202600000000     0          
C8YA     C      0.359750000000     0.859750000000     0.250000000000     0          
O2MA     O      0.685430000000     0.827860000000     0.223140000000     0          
C1R      C      0.590280000000     0.909720000000     0.250000000000     0          
C2R      C      0.562790000000     0.937210000000     0.250000000000     0          
C3R      C      0.668710000000     0.831290000000     0.250000000000     0          
C4MA     C      0.572290000000     0.971510000000     0.255540000000     0          
C5MA     C      0.607100000000     0.983060000000     0.261170000000     0          
H1MA     H      0.626900000000     0.968500000000     0.264400000000     0          
C6MA     C      0.613170000000     0.906820000000     0.223100000000     0          
H2MA     H      0.612700000000     0.923300000000     0.204600000000     0          
C7MA     C      0.636950000000     0.880060000000     0.222710000000     0          
H3MA     H      0.651000000000     0.876300000000     0.202600000000     0          
C8R      C      0.640250000000     0.859750000000     0.250000000000     0          
N1R      N      0.500000000000     0.949780000000     0.248160000000     0          
C4YA     C      0.471510000000     0.927710000000     0.244460000000     0          
C5YA     C      0.483060000000     0.892900000000     0.238830000000     0          
H1YA     H      0.468500000000     0.873100000000     0.235600000000     0          
C6YA     C      0.406820000000     0.886830000000     0.276900000000     0          
H2YA     H      0.423300000000     0.887300000000     0.295400000000     0          
C7YA     C      0.380060000000     0.863050000000     0.277290000000     0          
H3YA     H      0.376300000000     0.849000000000     0.297400000000     0          
C4R      C      0.528490000000     0.927710000000     0.244460000000     0          
C5R      C      0.516940000000     0.892900000000     0.238830000000     0          
H1R      H      0.531500000000     0.873100000000     0.235600000000     0          
C6R      C      0.593180000000     0.886830000000     0.276900000000     0          
H2R      H      0.576700000000     0.887300000000     0.295400000000     0          
C7R      C      0.619940000000     0.863050000000     0.277290000000     0          
H3R      H      0.623700000000     0.849000000000     0.297400000000     0          
Ni1C     Ni     0.500000000000     0.000000000000     0.750000000000     0          
N1C      N      0.500000000000     0.050220000000     0.751840000000     0          
C1C      C      0.590280000000     0.090280000000     0.750000000000     0          
C2C      C      0.562790000000     0.062790000000     0.750000000000     0          
C3C      C      0.668710000000     0.168710000000     0.750000000000     0          
C4C      C      0.528490000000     0.072290000000     0.755540000000     0          
C5C      C      0.516940000000     0.107100000000     0.761170000000     0          
H1C      H      0.531500000000     0.126900000000     0.764400000000     0          
C6C      C      0.593180000000     0.113170000000     0.723100000000     0          
H2C      H      0.576700000000     0.112700000000     0.704600000000     0          
C7C      C      0.619940000000     0.136950000000     0.722710000000     0          
H3C      H      0.623700000000     0.151000000000     0.702600000000     0          
C8C      C      0.640250000000     0.140250000000     0.750000000000     0          
N1NA     N      0.550220000000     0.000000000000     0.748160000000     0          
O2NA     O      0.685430000000     0.172140000000     0.776860000000     0          
C4NA     C      0.572290000000     0.028490000000     0.744460000000     0          
C5NA     C      0.607100000000     0.016940000000     0.738830000000     0          
H1NA     H      0.626900000000     0.031500000000     0.735600000000     0          
C6NA     C      0.613170000000     0.093180000000     0.776900000000     0          
H2NA     H      0.612700000000     0.076700000000     0.795400000000     0          
C7NA     C      0.636950000000     0.119940000000     0.777290000000     0          
H3NA     H      0.651000000000     0.123700000000     0.797400000000     0          
C1NB     C      0.409720000000     0.090280000000     0.750000000000     0          
C2NB     C      0.437210000000     0.062790000000     0.750000000000     0          
C3NB     C      0.331290000000     0.168710000000     0.750000000000     0          
C4NB     C      0.471510000000     0.072290000000     0.755540000000     0          
C5NB     C      0.483060000000     0.107100000000     0.761170000000     0          
H1NB     H      0.468500000000     0.126900000000     0.764400000000     0          
C6NB     C      0.406820000000     0.113170000000     0.723100000000     0          
H2NB     H      0.423300000000     0.112700000000     0.704600000000     0          
C7NB     C      0.380060000000     0.136950000000     0.722710000000     0          
H3NB     H      0.376300000000     0.151000000000     0.702600000000     0          
C8NB     C      0.359750000000     0.140250000000     0.750000000000     0          
N1HA     N      0.449780000000     0.000000000000     0.748160000000     0          
C4IC     C      0.427710000000     0.028490000000     0.744460000000     0          
C5IC     C      0.392900000000     0.016940000000     0.738830000000     0          
H1IC     H      0.373100000000     0.031500000000     0.735600000000     0          
C6IC     C      0.386830000000     0.093180000000     0.776900000000     0          
H2IC     H      0.387300000000     0.076700000000     0.795400000000     0          
C7IC     C      0.363050000000     0.119940000000     0.777290000000     0          
H3IC     H      0.349000000000     0.123700000000     0.797400000000     0          
C1WA     C      0.590280000000     0.909720000000     0.750000000000     0          
C2WA     C      0.562790000000     0.937210000000     0.750000000000     0          
C3WA     C      0.668710000000     0.831290000000     0.750000000000     0          
C4GC     C      0.572290000000     0.971510000000     0.744460000000     0          
C5GC     C      0.607100000000     0.983060000000     0.738830000000     0          
H1GC     H      0.626900000000     0.968500000000     0.735600000000     0          
C6GC     C      0.613170000000     0.906820000000     0.776900000000     0          
H2GC     H      0.612700000000     0.923300000000     0.795400000000     0          
C7GC     C      0.636950000000     0.880060000000     0.777290000000     0          
H3GC     H      0.651000000000     0.876300000000     0.797400000000     0          
C8WA     C      0.640250000000     0.859750000000     0.750000000000     0          
O2HA     O      0.314570000000     0.827860000000     0.776860000000     0          
C1S      C      0.409720000000     0.909720000000     0.750000000000     0          
C2S      C      0.437210000000     0.937210000000     0.750000000000     0          
C3S      C      0.331290000000     0.831290000000     0.750000000000     0          
C4HA     C      0.427710000000     0.971510000000     0.744460000000     0          
C5HA     C      0.392900000000     0.983060000000     0.738830000000     0          
H1HA     H      0.373100000000     0.968500000000     0.735600000000     0          
C6HA     C      0.386830000000     0.906820000000     0.776900000000     0          
H2HA     H      0.387300000000     0.923300000000     0.795400000000     0          
C7HA     C      0.363050000000     0.880060000000     0.777290000000     0          
H3HA     H      0.349000000000     0.876300000000     0.797400000000     0          
C8S      C      0.359750000000     0.859750000000     0.750000000000     0          
N1S      N      0.500000000000     0.949780000000     0.751840000000     0          
C4WA     C      0.528490000000     0.927710000000     0.755540000000     0          
C5WA     C      0.516940000000     0.892900000000     0.761170000000     0          
H1WA     H      0.531500000000     0.873100000000     0.764400000000     0          
C6WA     C      0.593180000000     0.886830000000     0.723100000000     0          
H2WA     H      0.576700000000     0.887300000000     0.704600000000     0          
C7WA     C      0.619940000000     0.863050000000     0.722710000000     0          
H3WA     H      0.623700000000     0.849000000000     0.702600000000     0          
C4S      C      0.471510000000     0.927710000000     0.755540000000     0          
C5S      C      0.483060000000     0.892900000000     0.761170000000     0          
H1S      H      0.468500000000     0.873100000000     0.764400000000     0          
C6S      C      0.406820000000     0.886830000000     0.723100000000     0          
H2S      H      0.423300000000     0.887300000000     0.704600000000     0          
C7S      C      0.380060000000     0.863050000000     0.722710000000     0          
H3S      H      0.376300000000     0.849000000000     0.702600000000     0          
O4QA     O      0.846460000000     0.249590000000     0.201010000000     0          
C9QA     C      0.860430000000     0.212640000000     0.212640000000     0          
C10QA    C      0.914270000000     0.236600000000     0.193530000000     0          
H4QA     H      0.904100000000     0.258700000000     0.188900000000     0          
C11QA    C      0.896340000000     0.209230000000     0.209230000000     0          
N2QA     N      0.958390000000     0.194300000000     0.194300000000     0          
C12QA    C      0.948880000000     0.228300000000     0.185210000000     0          
H5QA     H      0.964400000000     0.244300000000     0.174400000000     0          
C10EC    C      0.914270000000     0.193530000000     0.236600000000     0          
H4EC     H      0.904100000000     0.188900000000     0.258700000000     0          
C12EC    C      0.948880000000     0.185210000000     0.228300000000     0          
H5EC     H      0.964400000000     0.174400000000     0.244300000000     0          
O4TB     O      0.798990000000     0.249590000000     0.153540000000     0          
Ni1      Ni     0.000000000000     0.750000000000     0.500000000000     0          
N1       N      0.949780000000     0.751840000000     0.500000000000     0          
C1       C      0.909720000000     0.750000000000     0.409720000000     0          
C2       C      0.937210000000     0.750000000000     0.437210000000     0          
C3       C      0.831290000000     0.750000000000     0.331290000000     0          
C4       C      0.927710000000     0.755540000000     0.471510000000     0          
C5       C      0.892900000000     0.761170000000     0.483060000000     0          
H1       H      0.873100000000     0.764400000000     0.468500000000     0          
C6       C      0.886830000000     0.723100000000     0.406820000000     0          
H2       H      0.887300000000     0.704600000000     0.423300000000     0          
C7       C      0.863050000000     0.722710000000     0.380060000000     0          
H3       H      0.849000000000     0.702600000000     0.376300000000     0          
C8       C      0.859750000000     0.750000000000     0.359750000000     0          
Zr2?     Zr     0.764520000000     0.700160000000     0.299840000000     0          
N1SA     N      0.000000000000     0.748160000000     0.449780000000     0          
C4SA     C      0.971510000000     0.744460000000     0.427710000000     0          
C5SA     C      0.983060000000     0.738830000000     0.392900000000     0          
H1SA     H      0.968500000000     0.735600000000     0.373100000000     0          
C6SA     C      0.906820000000     0.776900000000     0.386830000000     0          
H2SA     H      0.923300000000     0.795400000000     0.387300000000     0          
C7SA     C      0.880060000000     0.777290000000     0.363050000000     0          
H3SA     H      0.876300000000     0.797400000000     0.349000000000     0          
C1DB     C      0.909720000000     0.750000000000     0.590280000000     0          
C2DB     C      0.937210000000     0.750000000000     0.562790000000     0          
C3DB     C      0.831290000000     0.750000000000     0.668710000000     0          
C4DB     C      0.927710000000     0.755540000000     0.528490000000     0          
C5DB     C      0.892900000000     0.761170000000     0.516940000000     0          
H1DB     H      0.873100000000     0.764400000000     0.531500000000     0          
C6DB     C      0.886830000000     0.723100000000     0.593180000000     0          
H2DB     H      0.887300000000     0.704600000000     0.576700000000     0          
C7DB     C      0.863050000000     0.722710000000     0.619940000000     0          
H3DB     H      0.849000000000     0.702600000000     0.623700000000     0          
C8DB     C      0.859750000000     0.750000000000     0.640250000000     0          
N1RA     N      0.000000000000     0.748160000000     0.550220000000     0          
C4XB     C      0.971510000000     0.744460000000     0.572290000000     0          
C5XB     C      0.983060000000     0.738830000000     0.607100000000     0          
H1XB     H      0.968500000000     0.735600000000     0.626900000000     0          
C6XB     C      0.906820000000     0.776900000000     0.613170000000     0          
H2XB     H      0.923300000000     0.795400000000     0.612700000000     0          
C7XB     C      0.880060000000     0.777290000000     0.636950000000     0          
H3XB     H      0.876300000000     0.797400000000     0.651000000000     0          
C1XA     C      0.090280000000     0.750000000000     0.409720000000     0          
C2XA     C      0.062790000000     0.750000000000     0.437210000000     0          
C3XA     C      0.168710000000     0.750000000000     0.331290000000     0          
C4ZB     C      0.028490000000     0.744460000000     0.427710000000     0          
C5ZB     C      0.016940000000     0.738830000000     0.392900000000     0          
H1ZB     H      0.031500000000     0.735600000000     0.373100000000     0          
C6ZB     C      0.093180000000     0.776900000000     0.386830000000     0          
H2ZB     H      0.076700000000     0.795400000000     0.387300000000     0          
C7ZB     C      0.119940000000     0.777290000000     0.363050000000     0          
H3ZB     H      0.123700000000     0.797400000000     0.349000000000     0          
C8XA     C      0.140250000000     0.750000000000     0.359750000000     0          
C1E      C      0.090280000000     0.750000000000     0.590280000000     0          
C2E      C      0.062790000000     0.750000000000     0.562790000000     0          
C3E      C      0.168710000000     0.750000000000     0.668710000000     0          
C4RA     C      0.028490000000     0.744460000000     0.572290000000     0          
C5RA     C      0.016940000000     0.738830000000     0.607100000000     0          
H1RA     H      0.031500000000     0.735600000000     0.626900000000     0          
C6RA     C      0.093180000000     0.776900000000     0.613170000000     0          
H2RA     H      0.076700000000     0.795400000000     0.612700000000     0          
C7RA     C      0.119940000000     0.777290000000     0.636950000000     0          
H3RA     H      0.123700000000     0.797400000000     0.651000000000     0          
C8E      C      0.140250000000     0.750000000000     0.640250000000     0          
N1E      N      0.050220000000     0.751840000000     0.500000000000     0          
C4XA     C      0.072290000000     0.755540000000     0.471510000000     0          
C5XA     C      0.107100000000     0.761170000000     0.483060000000     0          
H1XA     H      0.126900000000     0.764400000000     0.468500000000     0          
C6XA     C      0.113170000000     0.723100000000     0.406820000000     0          
H2XA     H      0.112700000000     0.704600000000     0.423300000000     0          
C7XA     C      0.136950000000     0.722710000000     0.380060000000     0          
H3XA     H      0.151000000000     0.702600000000     0.376300000000     0          
C4E      C      0.072290000000     0.755540000000     0.528490000000     0          
C5E      C      0.107100000000     0.761170000000     0.516940000000     0          
H1E      H      0.126900000000     0.764400000000     0.531500000000     0          
C6E      C      0.113170000000     0.723100000000     0.593180000000     0          
H2E      H      0.112700000000     0.704600000000     0.576700000000     0          
C7E      C      0.136950000000     0.722710000000     0.619940000000     0          
H3E      H      0.151000000000     0.702600000000     0.623700000000     0          
O4QA     O      0.750410000000     0.846460000000     0.201010000000     0          
C9QA     C      0.787360000000     0.860430000000     0.212640000000     0          
C10QA    C      0.763400000000     0.914270000000     0.193530000000     0          
H4QA     H      0.741300000000     0.904100000000     0.188900000000     0          
C11QA    C      0.790770000000     0.896340000000     0.209230000000     0          
N2QA     N      0.805700000000     0.958390000000     0.194300000000     0          
C12QA    C      0.771700000000     0.948880000000     0.185210000000     0          
H5QA     H      0.755700000000     0.964400000000     0.174400000000     0          
C10EC    C      0.806470000000     0.914270000000     0.236600000000     0          
H4EC     H      0.811100000000     0.904100000000     0.258700000000     0          
C12EC    C      0.814790000000     0.948880000000     0.228300000000     0          
H5EC     H      0.825600000000     0.964400000000     0.244300000000     0          
O4TB     O      0.750410000000     0.798990000000     0.153540000000     0          
Ni1      Ni     0.250000000000     0.000000000000     0.500000000000     0          
N1       N      0.248160000000     0.949780000000     0.500000000000     0          
C1       C      0.250000000000     0.909720000000     0.409720000000     0          
C2       C      0.250000000000     0.937210000000     0.437210000000     0          
C3       C      0.250000000000     0.831290000000     0.331290000000     0          
C4       C      0.244460000000     0.927710000000     0.471510000000     0          
C5       C      0.238830000000     0.892900000000     0.483060000000     0          
H1       H      0.235600000000     0.873100000000     0.468500000000     0          
C6       C      0.276900000000     0.886830000000     0.406820000000     0          
H2       H      0.295400000000     0.887300000000     0.423300000000     0          
C7       C      0.277290000000     0.863050000000     0.380060000000     0          
H3       H      0.297400000000     0.849000000000     0.376300000000     0          
C8       C      0.250000000000     0.859750000000     0.359750000000     0          
Zr2?     Zr     0.299840000000     0.764520000000     0.299840000000     0          
N1SA     N      0.251840000000     0.000000000000     0.449780000000     0          
C4SA     C      0.255540000000     0.971510000000     0.427710000000     0          
C5SA     C      0.261170000000     0.983060000000     0.392900000000     0          
H1SA     H      0.264400000000     0.968500000000     0.373100000000     0          
C6SA     C      0.223100000000     0.906820000000     0.386830000000     0          
H2SA     H      0.204600000000     0.923300000000     0.387300000000     0          
C7SA     C      0.222710000000     0.880060000000     0.363050000000     0          
H3SA     H      0.202600000000     0.876300000000     0.349000000000     0          
C1DB     C      0.250000000000     0.909720000000     0.590280000000     0          
C2DB     C      0.250000000000     0.937210000000     0.562790000000     0          
C3DB     C      0.250000000000     0.831290000000     0.668710000000     0          
C4DB     C      0.244460000000     0.927710000000     0.528490000000     0          
C5DB     C      0.238830000000     0.892900000000     0.516940000000     0          
H1DB     H      0.235600000000     0.873100000000     0.531500000000     0          
C6DB     C      0.276900000000     0.886830000000     0.593180000000     0          
H2DB     H      0.295400000000     0.887300000000     0.576700000000     0          
C7DB     C      0.277290000000     0.863050000000     0.619940000000     0          
H3DB     H      0.297400000000     0.849000000000     0.623700000000     0          
C8DB     C      0.250000000000     0.859750000000     0.640250000000     0          
N1RA     N      0.251840000000     0.000000000000     0.550220000000     0          
C4XB     C      0.255540000000     0.971510000000     0.572290000000     0          
C5XB     C      0.261170000000     0.983060000000     0.607100000000     0          
H1XB     H      0.264400000000     0.968500000000     0.626900000000     0          
C6XB     C      0.223100000000     0.906820000000     0.613170000000     0          
H2XB     H      0.204600000000     0.923300000000     0.612700000000     0          
C7XB     C      0.222710000000     0.880060000000     0.636950000000     0          
H3XB     H      0.202600000000     0.876300000000     0.651000000000     0          
C1XA     C      0.250000000000     0.090280000000     0.409720000000     0          
C2XA     C      0.250000000000     0.062790000000     0.437210000000     0          
C3XA     C      0.250000000000     0.168710000000     0.331290000000     0          
C4ZB     C      0.255540000000     0.028490000000     0.427710000000     0          
C5ZB     C      0.261170000000     0.016940000000     0.392900000000     0          
H1ZB     H      0.264400000000     0.031500000000     0.373100000000     0          
C6ZB     C      0.223100000000     0.093180000000     0.386830000000     0          
H2ZB     H      0.204600000000     0.076700000000     0.387300000000     0          
C7ZB     C      0.222710000000     0.119940000000     0.363050000000     0          
H3ZB     H      0.202600000000     0.123700000000     0.349000000000     0          
C8XA     C      0.250000000000     0.140250000000     0.359750000000     0          
C1E      C      0.250000000000     0.090280000000     0.590280000000     0          
C2E      C      0.250000000000     0.062790000000     0.562790000000     0          
C3E      C      0.250000000000     0.168710000000     0.668710000000     0          
C4RA     C      0.255540000000     0.028490000000     0.572290000000     0          
C5RA     C      0.261170000000     0.016940000000     0.607100000000     0          
H1RA     H      0.264400000000     0.031500000000     0.626900000000     0          
C6RA     C      0.223100000000     0.093180000000     0.613170000000     0          
H2RA     H      0.204600000000     0.076700000000     0.612700000000     0          
C7RA     C      0.222710000000     0.119940000000     0.636950000000     0          
H3RA     H      0.202600000000     0.123700000000     0.651000000000     0          
C8E      C      0.250000000000     0.140250000000     0.640250000000     0          
N1E      N      0.248160000000     0.050220000000     0.500000000000     0          
C4XA     C      0.244460000000     0.072290000000     0.471510000000     0          
C5XA     C      0.238830000000     0.107100000000     0.483060000000     0          
H1XA     H      0.235600000000     0.126900000000     0.468500000000     0          
C6XA     C      0.276900000000     0.113170000000     0.406820000000     0          
H2XA     H      0.295400000000     0.112700000000     0.423300000000     0          
C7XA     C      0.277290000000     0.136950000000     0.380060000000     0          
H3XA     H      0.297400000000     0.151000000000     0.376300000000     0          
C4E      C      0.244460000000     0.072290000000     0.528490000000     0          
C5E      C      0.238830000000     0.107100000000     0.516940000000     0          
H1E      H      0.235600000000     0.126900000000     0.531500000000     0          
C6E      C      0.276900000000     0.113170000000     0.593180000000     0          
H2E      H      0.295400000000     0.112700000000     0.576700000000     0          
C7E      C      0.277290000000     0.136950000000     0.619940000000     0          
H3E      H      0.297400000000     0.151000000000     0.623700000000     0          
O4QA     O      0.153540000000     0.750410000000     0.201010000000     0          
C9QA     C      0.139570000000     0.787360000000     0.212640000000     0          
C10QA    C      0.085730000000     0.763400000000     0.193530000000     0          
H4QA     H      0.095900000000     0.741300000000     0.188900000000     0          
C11QA    C      0.103660000000     0.790770000000     0.209230000000     0          
N2QA     N      0.041610000000     0.805700000000     0.194300000000     0          
C12QA    C      0.051120000000     0.771700000000     0.185210000000     0          
H5QA     H      0.035600000000     0.755700000000     0.174400000000     0          
C10EC    C      0.085730000000     0.806470000000     0.236600000000     0          
H4EC     H      0.095900000000     0.811100000000     0.258700000000     0          
C12EC    C      0.051120000000     0.814790000000     0.228300000000     0          
H5EC     H      0.035600000000     0.825600000000     0.244300000000     0          
O4TB     O      0.201010000000     0.750410000000     0.153540000000     0          
Zr2?     Zr     0.235480000000     0.700160000000     0.700160000000     0          
O4QA     O      0.249590000000     0.846460000000     0.798990000000     0          
C9QA     C      0.212640000000     0.860430000000     0.787360000000     0          
C10QA    C      0.236600000000     0.914270000000     0.806470000000     0          
H4QA     H      0.258700000000     0.904100000000     0.811100000000     0          
C11QA    C      0.209230000000     0.896340000000     0.790770000000     0          
N2QA     N      0.194300000000     0.958390000000     0.805700000000     0          
C12QA    C      0.228300000000     0.948880000000     0.814790000000     0          
H5QA     H      0.244300000000     0.964400000000     0.825600000000     0          
C10EC    C      0.193530000000     0.914270000000     0.763400000000     0          
H4EC     H      0.188900000000     0.904100000000     0.741300000000     0          
C12EC    C      0.185210000000     0.948880000000     0.771700000000     0          
H5EC     H      0.174400000000     0.964400000000     0.755700000000     0          
O4TB     O      0.249590000000     0.798990000000     0.846460000000     0          
Zr2?     Zr     0.299840000000     0.235480000000     0.700160000000     0          
O4QA     O      0.153540000000     0.249590000000     0.798990000000     0          
C9QA     C      0.139570000000     0.212640000000     0.787360000000     0          
C10QA    C      0.085730000000     0.236600000000     0.806470000000     0          
H4QA     H      0.095900000000     0.258700000000     0.811100000000     0          
C11QA    C      0.103660000000     0.209230000000     0.790770000000     0          
N2QA     N      0.041610000000     0.194300000000     0.805700000000     0          
C12QA    C      0.051120000000     0.228300000000     0.814790000000     0          
H5QA     H      0.035600000000     0.244300000000     0.825600000000     0          
C10EC    C      0.085730000000     0.193530000000     0.763400000000     0          
H4EC     H      0.095900000000     0.188900000000     0.741300000000     0          
C12EC    C      0.051120000000     0.185210000000     0.771700000000     0          
H5EC     H      0.035600000000     0.174400000000     0.755700000000     0          
O4TB     O      0.201010000000     0.249590000000     0.846460000000     0          
Zr2?     Zr     0.764520000000     0.299840000000     0.700160000000     0          
O4QA     O      0.750410000000     0.153540000000     0.798990000000     0          
C9QA     C      0.787360000000     0.139570000000     0.787360000000     0          
C10QA    C      0.763400000000     0.085730000000     0.806470000000     0          
H4QA     H      0.741300000000     0.095900000000     0.811100000000     0          
C11QA    C      0.790770000000     0.103660000000     0.790770000000     0          
N2QA     N      0.805700000000     0.041610000000     0.805700000000     0          
C12QA    C      0.771700000000     0.051120000000     0.814790000000     0          
H5QA     H      0.755700000000     0.035600000000     0.825600000000     0          
C10EC    C      0.806470000000     0.085730000000     0.763400000000     0          
H4EC     H      0.811100000000     0.095900000000     0.741300000000     0          
C12EC    C      0.814790000000     0.051120000000     0.771700000000     0          
H5EC     H      0.825600000000     0.035600000000     0.755700000000     0          
O4TB     O      0.750410000000     0.201010000000     0.846460000000     0          
Zr2?     Zr     0.700160000000     0.764520000000     0.700160000000     0          
O4QA     O      0.846460000000     0.750410000000     0.798990000000     0          
C9QA     C      0.860430000000     0.787360000000     0.787360000000     0          
C10QA    C      0.914270000000     0.763400000000     0.806470000000     0          
H4QA     H      0.904100000000     0.741300000000     0.811100000000     0          
C11QA    C      0.896340000000     0.790770000000     0.790770000000     0          
N2QA     N      0.958390000000     0.805700000000     0.805700000000     0          
C12QA    C      0.948880000000     0.771700000000     0.814790000000     0          
H5QA     H      0.964400000000     0.755700000000     0.825600000000     0          
C10EC    C      0.914270000000     0.806470000000     0.763400000000     0          
H4EC     H      0.904100000000     0.811100000000     0.741300000000     0          
C12EC    C      0.948880000000     0.814790000000     0.771700000000     0          
H5EC     H      0.964400000000     0.825600000000     0.755700000000     0          
O4TB     O      0.798990000000     0.750410000000     0.846460000000     0          
Zr2?     Zr     0.299840000000     0.235480000000     0.299840000000     0          
C9QA     C      0.212640000000     0.212640000000     0.139570000000     0          
C10QA    C      0.193530000000     0.236600000000     0.085730000000     0          
H4QA     H      0.188900000000     0.258700000000     0.095900000000     0          
C11QA    C      0.209230000000     0.209230000000     0.103660000000     0          
N2QA     N      0.194300000000     0.194300000000     0.041610000000     0          
C12QA    C      0.185210000000     0.228300000000     0.051120000000     0          
H5QA     H      0.174400000000     0.244300000000     0.035600000000     0          
C10EC    C      0.236600000000     0.193530000000     0.085730000000     0          
H4EC     H      0.258700000000     0.188900000000     0.095900000000     0          
C12EC    C      0.228300000000     0.185210000000     0.051120000000     0          
H5EC     H      0.244300000000     0.174400000000     0.035600000000     0          
Zr2?     Zr     0.299840000000     0.764520000000     0.700160000000     0          
C9QA     C      0.212640000000     0.787360000000     0.860430000000     0          
C10QA    C      0.193530000000     0.763400000000     0.914270000000     0          
H4QA     H      0.188900000000     0.741300000000     0.904100000000     0          
C11QA    C      0.209230000000     0.790770000000     0.896340000000     0          
N2QA     N      0.194300000000     0.805700000000     0.958390000000     0          
C12QA    C      0.185210000000     0.771700000000     0.948880000000     0          
H5QA     H      0.174400000000     0.755700000000     0.964400000000     0          
C10EC    C      0.236600000000     0.806470000000     0.914270000000     0          
H4EC     H      0.258700000000     0.811100000000     0.904100000000     0          
C12EC    C      0.228300000000     0.814790000000     0.948880000000     0          
H5EC     H      0.244300000000     0.825600000000     0.964400000000     0          
Zr2?     Zr     0.235480000000     0.299840000000     0.700160000000     0          
C9QA     C      0.212640000000     0.212640000000     0.860430000000     0          
C10QA    C      0.236600000000     0.193530000000     0.914270000000     0          
H4QA     H      0.258700000000     0.188900000000     0.904100000000     0          
C11QA    C      0.209230000000     0.209230000000     0.896340000000     0          
N2QA     N      0.194300000000     0.194300000000     0.958390000000     0          
C12QA    C      0.228300000000     0.185210000000     0.948880000000     0          
H5QA     H      0.244300000000     0.174400000000     0.964400000000     0          
C10EC    C      0.193530000000     0.236600000000     0.914270000000     0          
H4EC     H      0.188900000000     0.258700000000     0.904100000000     0          
C12EC    C      0.185210000000     0.228300000000     0.948880000000     0          
H5EC     H      0.174400000000     0.244300000000     0.964400000000     0          
Zr2?     Zr     0.700160000000     0.235480000000     0.700160000000     0          
C9QA     C      0.787360000000     0.212640000000     0.860430000000     0          
C10QA    C      0.806470000000     0.236600000000     0.914270000000     0          
H4QA     H      0.811100000000     0.258700000000     0.904100000000     0          
C11QA    C      0.790770000000     0.209230000000     0.896340000000     0          
N2QA     N      0.805700000000     0.194300000000     0.958390000000     0          
C12QA    C      0.814790000000     0.228300000000     0.948880000000     0          
H5QA     H      0.825600000000     0.244300000000     0.964400000000     0          
C10EC    C      0.763400000000     0.193530000000     0.914270000000     0          
H4EC     H      0.741300000000     0.188900000000     0.904100000000     0          
C12EC    C      0.771700000000     0.185210000000     0.948880000000     0          
H5EC     H      0.755700000000     0.174400000000     0.964400000000     0          
Zr2?     Zr     0.764520000000     0.700160000000     0.700160000000     0          
C9QA     C      0.787360000000     0.787360000000     0.860430000000     0          
C10QA    C      0.763400000000     0.806470000000     0.914270000000     0          
H4QA     H      0.741300000000     0.811100000000     0.904100000000     0          
C11QA    C      0.790770000000     0.790770000000     0.896340000000     0          
N2QA     N      0.805700000000     0.805700000000     0.958390000000     0          
C12QA    C      0.771700000000     0.814790000000     0.948880000000     0          
H5QA     H      0.755700000000     0.825600000000     0.964400000000     0          
C10EC    C      0.806470000000     0.763400000000     0.914270000000     0          
H4EC     H      0.811100000000     0.741300000000     0.904100000000     0          
C12EC    C      0.814790000000     0.771700000000     0.948880000000     0          
H5EC     H      0.825600000000     0.755700000000     0.964400000000     0          
Zr2?     Zr     0.700160000000     0.764520000000     0.299840000000     0          
C9QA     C      0.787360000000     0.787360000000     0.139570000000     0          
C10QA    C      0.806470000000     0.763400000000     0.085730000000     0          
H4QA     H      0.811100000000     0.741300000000     0.095900000000     0          
C11QA    C      0.790770000000     0.790770000000     0.103660000000     0          
N2QA     N      0.805700000000     0.805700000000     0.041610000000     0          
C12QA    C      0.814790000000     0.771700000000     0.051120000000     0          
H5QA     H      0.825600000000     0.755700000000     0.035600000000     0          
C10EC    C      0.763400000000     0.806470000000     0.085730000000     0          
H4EC     H      0.741300000000     0.811100000000     0.095900000000     0          
C12EC    C      0.771700000000     0.814790000000     0.051120000000     0          
H5EC     H      0.755700000000     0.825600000000     0.035600000000     0          
Zr2?     Zr     0.235480000000     0.700160000000     0.299840000000     0          
C9QA     C      0.212640000000     0.787360000000     0.139570000000     0          
C10QA    C      0.236600000000     0.806470000000     0.085730000000     0          
H4QA     H      0.258700000000     0.811100000000     0.095900000000     0          
C11QA    C      0.209230000000     0.790770000000     0.103660000000     0          
N2QA     N      0.194300000000     0.805700000000     0.041610000000     0          
C12QA    C      0.228300000000     0.814790000000     0.051120000000     0          
H5QA     H      0.244300000000     0.825600000000     0.035600000000     0          
C10EC    C      0.193530000000     0.763400000000     0.085730000000     0          
H4EC     H      0.188900000000     0.741300000000     0.095900000000     0          
C12EC    C      0.185210000000     0.771700000000     0.051120000000     0          
H5EC     H      0.174400000000     0.755700000000     0.035600000000     0          
Zr2?     Zr     0.764520000000     0.299840000000     0.299840000000     0          
C9QA     C      0.787360000000     0.212640000000     0.139570000000     0          
C10QA    C      0.763400000000     0.193530000000     0.085730000000     0          
H4QA     H      0.741300000000     0.188900000000     0.095900000000     0          
C11QA    C      0.790770000000     0.209230000000     0.103660000000     0          
N2QA     N      0.805700000000     0.194300000000     0.041610000000     0          
C12QA    C      0.771700000000     0.185210000000     0.051120000000     0          
H5QA     H      0.755700000000     0.174400000000     0.035600000000     0          
C10EC    C      0.806470000000     0.236600000000     0.085730000000     0          
H4EC     H      0.811100000000     0.258700000000     0.095900000000     0          
C12EC    C      0.814790000000     0.228300000000     0.051120000000     0          
H5EC     H      0.825600000000     0.244300000000     0.035600000000     0          
Zr2?     Zr     0.799840000000     0.799840000000     0.735480000000     0          
Zr2?     Zr     0.200160000000     0.799840000000     0.735480000000     0          
Zr2?     Zr     0.200160000000     0.200160000000     0.735480000000     0          
Zr2?     Zr     0.799840000000     0.200160000000     0.735480000000     0          
Zr2?     Zr     0.799840000000     0.200160000000     0.264520000000     0          
Zr2?     Zr     0.799840000000     0.799840000000     0.264520000000     0          
Zr2?     Zr     0.200160000000     0.799840000000     0.264520000000     0          
Zr2?     Zr     0.200160000000     0.200160000000     0.264520000000     0          
Zr2?     Zr     0.735480000000     0.799840000000     0.799840000000     0          
Zr2?     Zr     0.200160000000     0.735480000000     0.799840000000     0          
Zr2?     Zr     0.264520000000     0.200160000000     0.799840000000     0          
Zr2?     Zr     0.799840000000     0.264520000000     0.799840000000     0          
Zr2?     Zr     0.735480000000     0.200160000000     0.200160000000     0          
Zr2?     Zr     0.799840000000     0.735480000000     0.200160000000     0          
Zr2?     Zr     0.264520000000     0.799840000000     0.200160000000     0          
Zr2?     Zr     0.200160000000     0.264520000000     0.200160000000     0          
Zr2?     Zr     0.799840000000     0.735480000000     0.799840000000     0          
Zr2?     Zr     0.799840000000     0.264520000000     0.200160000000     0          
Zr2?     Zr     0.735480000000     0.799840000000     0.200160000000     0          
Zr2?     Zr     0.200160000000     0.735480000000     0.200160000000     0          
Zr2?     Zr     0.264520000000     0.200160000000     0.200160000000     0          
Zr2?     Zr     0.200160000000     0.264520000000     0.799840000000     0          
Zr2?     Zr     0.735480000000     0.200160000000     0.799840000000     0          
Zr2?     Zr     0.264520000000     0.799840000000     0.799840000000     0          


