data_BESMIY

_audit_creation_method RASPA-1.0
_audit_creation_date 2020-11-2
_audit_author_name 'Rocio Bueno-Perez'

_cell_length_a    20.74
_cell_length_b    20.74
_cell_length_c    20.74
_cell_angle_alpha 90
_cell_angle_beta  90
_cell_angle_gamma 90
_cell_volume      8921.26

_symmetry_cell_setting          triclinic
_symmetry_space_group_name_Hall 'P 1'
_symmetry_space_group_name_H-M  'P 1'
_symmetry_Int_Tables_number     1

_symmetry_equiv_pos_as_xyz 'x,y,z'

loop_
_atom_site_label
_atom_site_type_symbol
_atom_site_fract_x
_atom_site_fract_y
_atom_site_fract_z
_atom_site_charge
C1       C      0.235200000000     0.187000000000     0.013000000000     0          
C2       C      0.235200000000     0.687000000000     0.513000000000     0          
C3       C      0.213000000000     0.619000000000     0.541000000000     0          
C4       C      0.137000000000     0.603000000000     0.515000000000     0          
C5       C      0.764800000000     0.813000000000     0.013000000000     0          
C6       C      0.787000000000     0.881000000000     0.041000000000     0          
C7       C      0.863000000000     0.897000000000     0.015000000000     0          
C8       C      0.764800000000     0.313000000000     0.513000000000     0          
C9       C      0.787000000000     0.381000000000     0.541000000000     0          
C10      C      0.863000000000     0.397000000000     0.515000000000     0          
C11      C      0.764800000000     0.687000000000     0.487000000000     0          
C12      C      0.264800000000     0.687000000000     0.987000000000     0          
C13      C      0.235200000000     0.313000000000     0.487000000000     0          
C14      C      0.735200000000     0.313000000000     0.987000000000     0          
C15      C      0.013000000000     0.235200000000     0.187000000000     0          
C16      C      0.513000000000     0.235200000000     0.687000000000     0          
C17      C      0.013000000000     0.764800000000     0.813000000000     0          
C18      C      0.513000000000     0.764800000000     0.313000000000     0          
C19      C      0.987000000000     0.264800000000     0.687000000000     0          
C20      C      0.959000000000     0.287000000000     0.619000000000     0          
C21      C      0.985000000000     0.363000000000     0.603000000000     0          
C22      C      0.487000000000     0.764800000000     0.687000000000     0          
C23      C      0.987000000000     0.735200000000     0.313000000000     0          
C24      C      0.959000000000     0.713000000000     0.381000000000     0          
C25      C      0.985000000000     0.637000000000     0.397000000000     0          
C26      C      0.487000000000     0.235200000000     0.313000000000     0          
C27      C      0.687000000000     0.013000000000     0.735200000000     0          
C28      C      0.619000000000     0.041000000000     0.713000000000     0          
C29      C      0.603000000000     0.015000000000     0.637000000000     0          
C30      C      0.687000000000     0.513000000000     0.235200000000     0          
C31      C      0.313000000000     0.013000000000     0.264800000000     0          
C32      C      0.313000000000     0.513000000000     0.764800000000     0          
C33      C      0.187000000000     0.987000000000     0.764800000000     0          
C34      C      0.687000000000     0.487000000000     0.764800000000     0          
C35      C      0.813000000000     0.987000000000     0.235200000000     0          
C36      C      0.313000000000     0.487000000000     0.235200000000     0          
C37      C      0.687000000000     0.235200000000     0.487000000000     0          
C38      C      0.687000000000     0.735200000000     0.987000000000     0          
C39      C      0.313000000000     0.764800000000     0.487000000000     0          
C40      C      0.313000000000     0.264800000000     0.987000000000     0          
C41      C      0.187000000000     0.764800000000     0.013000000000     0          
C42      C      0.687000000000     0.764800000000     0.513000000000     0          
C43      C      0.619000000000     0.787000000000     0.541000000000     0          
C44      C      0.603000000000     0.863000000000     0.515000000000     0          
C45      C      0.813000000000     0.235200000000     0.013000000000     0          
C46      C      0.313000000000     0.235200000000     0.513000000000     0          
C47      C      0.381000000000     0.213000000000     0.541000000000     0          
C48      C      0.397000000000     0.137000000000     0.515000000000     0          
C49      C      0.235200000000     0.513000000000     0.313000000000     0          
C50      C      0.735200000000     0.013000000000     0.313000000000     0          
C51      C      0.764800000000     0.513000000000     0.687000000000     0          
C52      C      0.264800000000     0.013000000000     0.687000000000     0          
C53      C      0.287000000000     0.041000000000     0.619000000000     0          
C54      C      0.363000000000     0.015000000000     0.603000000000     0          
C55      C      0.764800000000     0.987000000000     0.813000000000     0          
C56      C      0.764800000000     0.487000000000     0.313000000000     0          
C57      C      0.235200000000     0.987000000000     0.187000000000     0          
C58      C      0.235200000000     0.487000000000     0.687000000000     0          
C59      C      0.013000000000     0.187000000000     0.764800000000     0          
C60      C      0.513000000000     0.687000000000     0.764800000000     0          
C61      C      0.013000000000     0.813000000000     0.235200000000     0          
C62      C      0.513000000000     0.313000000000     0.235200000000     0          
C63      C      0.987000000000     0.687000000000     0.735200000000     0          
C64      C      0.487000000000     0.687000000000     0.235200000000     0          
C65      C      0.987000000000     0.313000000000     0.264800000000     0          
C66      C      0.487000000000     0.313000000000     0.764800000000     0          
C67      C      0.264800000000     0.813000000000     0.487000000000     0          
C68      C      0.264800000000     0.313000000000     0.987000000000     0          
C69      C      0.287000000000     0.381000000000     0.959000000000     0          
C70      C      0.363000000000     0.397000000000     0.985000000000     0          
C71      C      0.735200000000     0.187000000000     0.487000000000     0          
C72      C      0.735200000000     0.687000000000     0.987000000000     0          
C73      C      0.235200000000     0.813000000000     0.013000000000     0          
C74      C      0.735200000000     0.813000000000     0.513000000000     0          
C75      C      0.764800000000     0.187000000000     0.013000000000     0          
C76      C      0.264800000000     0.187000000000     0.513000000000     0          
C77      C      0.987000000000     0.264800000000     0.313000000000     0          
C78      C      0.487000000000     0.264800000000     0.813000000000     0          
C79      C      0.987000000000     0.735200000000     0.687000000000     0          
C80      C      0.487000000000     0.735200000000     0.187000000000     0          
C81      C      0.013000000000     0.235200000000     0.813000000000     0          
C82      C      0.513000000000     0.735200000000     0.813000000000     0          
C83      C      0.541000000000     0.713000000000     0.881000000000     0          
C84      C      0.515000000000     0.637000000000     0.897000000000     0          
C85      C      0.013000000000     0.764800000000     0.187000000000     0          
C86      C      0.513000000000     0.264800000000     0.187000000000     0          
C87      C      0.541000000000     0.287000000000     0.119000000000     0          
C88      C      0.515000000000     0.363000000000     0.103000000000     0          
C89      C      0.813000000000     0.987000000000     0.764800000000     0          
C90      C      0.813000000000     0.487000000000     0.264800000000     0          
C91      C      0.881000000000     0.459000000000     0.287000000000     0          
C92      C      0.897000000000     0.485000000000     0.363000000000     0          
C93      C      0.187000000000     0.987000000000     0.235200000000     0          
C94      C      0.119000000000     0.959000000000     0.213000000000     0          
C95      C      0.103000000000     0.985000000000     0.137000000000     0          
C96      C      0.187000000000     0.487000000000     0.735200000000     0          
C97      C      0.119000000000     0.459000000000     0.713000000000     0          
C98      C      0.103000000000     0.485000000000     0.637000000000     0          
C99      C      0.813000000000     0.513000000000     0.735200000000     0          
C100     C      0.313000000000     0.013000000000     0.735200000000     0          
C101     C      0.187000000000     0.513000000000     0.264800000000     0          
C102     C      0.687000000000     0.013000000000     0.264800000000     0          
C103     C      0.813000000000     0.764800000000     0.013000000000     0          
C104     C      0.813000000000     0.264800000000     0.513000000000     0          
C105     C      0.187000000000     0.235200000000     0.013000000000     0          
C106     C      0.187000000000     0.735200000000     0.513000000000     0          
C107     C      0.813000000000     0.735200000000     0.487000000000     0          
C108     C      0.313000000000     0.735200000000     0.987000000000     0          
C109     C      0.381000000000     0.713000000000     0.959000000000     0          
C110     C      0.397000000000     0.637000000000     0.985000000000     0          
C111     C      0.187000000000     0.264800000000     0.487000000000     0          
C112     C      0.687000000000     0.264800000000     0.987000000000     0          
C113     C      0.619000000000     0.287000000000     0.959000000000     0          
C114     C      0.603000000000     0.363000000000     0.985000000000     0          
C115     C      0.764800000000     0.987000000000     0.187000000000     0          
C116     C      0.787000000000     0.959000000000     0.119000000000     0          
C117     C      0.863000000000     0.985000000000     0.103000000000     0          
C118     C      0.264800000000     0.487000000000     0.187000000000     0          
C119     C      0.287000000000     0.459000000000     0.119000000000     0          
C120     C      0.363000000000     0.485000000000     0.103000000000     0          
C121     C      0.235200000000     0.987000000000     0.813000000000     0          
C122     C      0.735200000000     0.487000000000     0.813000000000     0          
C123     C      0.713000000000     0.459000000000     0.881000000000     0          
C124     C      0.637000000000     0.485000000000     0.897000000000     0          
C125     C      0.735200000000     0.013000000000     0.687000000000     0          
C126     C      0.735200000000     0.513000000000     0.187000000000     0          
C127     C      0.264800000000     0.013000000000     0.313000000000     0          
C128     C      0.264800000000     0.513000000000     0.813000000000     0          
C129     C      0.987000000000     0.313000000000     0.735200000000     0          
C130     C      0.487000000000     0.813000000000     0.735200000000     0          
C131     C      0.987000000000     0.687000000000     0.264800000000     0          
C132     C      0.487000000000     0.187000000000     0.264800000000     0          
C133     C      0.013000000000     0.813000000000     0.764800000000     0          
C134     C      0.041000000000     0.881000000000     0.787000000000     0          
C135     C      0.015000000000     0.897000000000     0.863000000000     0          
C136     C      0.513000000000     0.813000000000     0.264800000000     0          
C137     C      0.541000000000     0.881000000000     0.287000000000     0          
C138     C      0.515000000000     0.897000000000     0.363000000000     0          
C139     C      0.013000000000     0.187000000000     0.235200000000     0          
C140     C      0.041000000000     0.119000000000     0.213000000000     0          
C141     C      0.015000000000     0.103000000000     0.137000000000     0          
C142     C      0.513000000000     0.187000000000     0.735200000000     0          
C143     C      0.541000000000     0.119000000000     0.713000000000     0          
C144     C      0.515000000000     0.103000000000     0.637000000000     0          
Zr145    Zr     0.380740000000     0.000000000000     0.000000000000     0          
Zr146    Zr     0.380740000000     0.500000000000     0.500000000000     0          
Zr147    Zr     0.880740000000     0.000000000000     0.500000000000     0          
Zr148    Zr     0.880740000000     0.500000000000     0.000000000000     0          
Zr149    Zr     0.619260000000     0.000000000000     0.000000000000     0          
Zr150    Zr     0.619260000000     0.500000000000     0.500000000000     0          
Zr151    Zr     0.119260000000     0.000000000000     0.500000000000     0          
Zr152    Zr     0.119260000000     0.500000000000     0.000000000000     0          
Zr153    Zr     0.000000000000     0.380740000000     0.000000000000     0          
Zr154    Zr     0.000000000000     0.880740000000     0.500000000000     0          
Zr155    Zr     0.500000000000     0.380740000000     0.500000000000     0          
Zr156    Zr     0.500000000000     0.880740000000     0.000000000000     0          
Zr157    Zr     0.000000000000     0.619260000000     0.000000000000     0          
Zr158    Zr     0.000000000000     0.119260000000     0.500000000000     0          
Zr159    Zr     0.500000000000     0.619260000000     0.500000000000     0          
Zr160    Zr     0.500000000000     0.119260000000     0.000000000000     0          
Zr161    Zr     0.000000000000     0.000000000000     0.380740000000     0          
Zr162    Zr     0.000000000000     0.500000000000     0.880740000000     0          
Zr163    Zr     0.500000000000     0.000000000000     0.880740000000     0          
Zr164    Zr     0.500000000000     0.500000000000     0.380740000000     0          
Zr165    Zr     0.000000000000     0.000000000000     0.619260000000     0          
Zr166    Zr     0.000000000000     0.500000000000     0.119260000000     0          
Zr167    Zr     0.500000000000     0.000000000000     0.119260000000     0          
Zr168    Zr     0.500000000000     0.500000000000     0.619260000000     0          
O169     O      0.329200000000     0.093700000000     0.000000000000     0          
O170     O      0.329200000000     0.593700000000     0.500000000000     0          
O171     O      0.829200000000     0.093700000000     0.500000000000     0          
O172     O      0.829200000000     0.593700000000     0.000000000000     0          
O173     O      0.670800000000     0.906300000000     0.000000000000     0          
O174     O      0.670800000000     0.406300000000     0.500000000000     0          
O175     O      0.170800000000     0.906300000000     0.500000000000     0          
O176     O      0.170800000000     0.406300000000     0.000000000000     0          
O177     O      0.670800000000     0.093700000000     0.000000000000     0          
O178     O      0.670800000000     0.593700000000     0.500000000000     0          
O179     O      0.170800000000     0.093700000000     0.500000000000     0          
O180     O      0.170800000000     0.593700000000     0.000000000000     0          
O181     O      0.329200000000     0.906300000000     0.000000000000     0          
O182     O      0.329200000000     0.406300000000     0.500000000000     0          
O183     O      0.829200000000     0.906300000000     0.500000000000     0          
O184     O      0.829200000000     0.406300000000     0.000000000000     0          
O185     O      0.000000000000     0.329200000000     0.093700000000     0          
O186     O      0.000000000000     0.829200000000     0.593700000000     0          
O187     O      0.500000000000     0.329200000000     0.593700000000     0          
O188     O      0.500000000000     0.829200000000     0.093700000000     0          
O189     O      0.000000000000     0.670800000000     0.906300000000     0          
O190     O      0.000000000000     0.170800000000     0.406300000000     0          
O191     O      0.500000000000     0.670800000000     0.406300000000     0          
O192     O      0.500000000000     0.170800000000     0.906300000000     0          
O193     O      0.000000000000     0.670800000000     0.093700000000     0          
O194     O      0.000000000000     0.170800000000     0.593700000000     0          
O195     O      0.500000000000     0.670800000000     0.593700000000     0          
O196     O      0.500000000000     0.170800000000     0.093700000000     0          
O197     O      0.000000000000     0.329200000000     0.906300000000     0          
O198     O      0.000000000000     0.829200000000     0.406300000000     0          
O199     O      0.500000000000     0.329200000000     0.406300000000     0          
O200     O      0.500000000000     0.829200000000     0.906300000000     0          
O201     O      0.093700000000     0.000000000000     0.329200000000     0          
O202     O      0.093700000000     0.500000000000     0.829200000000     0          
O203     O      0.593700000000     0.000000000000     0.829200000000     0          
O204     O      0.593700000000     0.500000000000     0.329200000000     0          
O205     O      0.906300000000     0.000000000000     0.670800000000     0          
O206     O      0.906300000000     0.500000000000     0.170800000000     0          
O207     O      0.406300000000     0.000000000000     0.170800000000     0          
O208     O      0.406300000000     0.500000000000     0.670800000000     0          
O209     O      0.093700000000     0.000000000000     0.670800000000     0          
O210     O      0.093700000000     0.500000000000     0.170800000000     0          
O211     O      0.593700000000     0.000000000000     0.170800000000     0          
O212     O      0.593700000000     0.500000000000     0.670800000000     0          
O213     O      0.906300000000     0.000000000000     0.329200000000     0          
O214     O      0.906300000000     0.500000000000     0.829200000000     0          
O215     O      0.406300000000     0.000000000000     0.829200000000     0          
O216     O      0.406300000000     0.500000000000     0.329200000000     0          
O217     O      0.093700000000     0.329200000000     0.000000000000     0          
O218     O      0.093700000000     0.829200000000     0.500000000000     0          
O219     O      0.593700000000     0.329200000000     0.500000000000     0          
O220     O      0.593700000000     0.829200000000     0.000000000000     0          
O221     O      0.906300000000     0.670800000000     0.000000000000     0          
O222     O      0.906300000000     0.170800000000     0.500000000000     0          
O223     O      0.406300000000     0.670800000000     0.500000000000     0          
O224     O      0.406300000000     0.170800000000     0.000000000000     0          
O225     O      0.093700000000     0.670800000000     0.000000000000     0          
O226     O      0.093700000000     0.170800000000     0.500000000000     0          
O227     O      0.593700000000     0.670800000000     0.500000000000     0          
O228     O      0.593700000000     0.170800000000     0.000000000000     0          
O229     O      0.906300000000     0.329200000000     0.000000000000     0          
O230     O      0.906300000000     0.829200000000     0.500000000000     0          
O231     O      0.406300000000     0.329200000000     0.500000000000     0          
O232     O      0.406300000000     0.829200000000     0.000000000000     0          
O233     O      0.329200000000     0.000000000000     0.906300000000     0          
O234     O      0.329200000000     0.500000000000     0.406300000000     0          
O235     O      0.829200000000     0.000000000000     0.406300000000     0          
O236     O      0.829200000000     0.500000000000     0.906300000000     0          
O237     O      0.670800000000     0.000000000000     0.093700000000     0          
O238     O      0.670800000000     0.500000000000     0.593700000000     0          
O239     O      0.170800000000     0.000000000000     0.593700000000     0          
O240     O      0.170800000000     0.500000000000     0.093700000000     0          
O241     O      0.670800000000     0.000000000000     0.906300000000     0          
O242     O      0.670800000000     0.500000000000     0.406300000000     0          
O243     O      0.170800000000     0.000000000000     0.406300000000     0          
O244     O      0.170800000000     0.500000000000     0.906300000000     0          
O245     O      0.329200000000     0.000000000000     0.093700000000     0          
O246     O      0.329200000000     0.500000000000     0.593700000000     0          
O247     O      0.829200000000     0.000000000000     0.593700000000     0          
O248     O      0.829200000000     0.500000000000     0.093700000000     0          
O249     O      0.000000000000     0.093700000000     0.670800000000     0          
O250     O      0.000000000000     0.593700000000     0.170800000000     0          
O251     O      0.500000000000     0.093700000000     0.170800000000     0          
O252     O      0.500000000000     0.593700000000     0.670800000000     0          
O253     O      0.000000000000     0.906300000000     0.329200000000     0          
O254     O      0.000000000000     0.406300000000     0.829200000000     0          
O255     O      0.500000000000     0.906300000000     0.829200000000     0          
O256     O      0.500000000000     0.406300000000     0.329200000000     0          
O257     O      0.000000000000     0.093700000000     0.329200000000     0          
O258     O      0.000000000000     0.593700000000     0.829200000000     0          
O259     O      0.500000000000     0.093700000000     0.829200000000     0          
O260     O      0.500000000000     0.593700000000     0.329200000000     0          
O261     O      0.000000000000     0.906300000000     0.670800000000     0          
O262     O      0.000000000000     0.406300000000     0.170800000000     0          
O263     O      0.500000000000     0.906300000000     0.170800000000     0          
O264     O      0.500000000000     0.406300000000     0.670800000000     0          
C265     C      0.348460000000     0.151540000000     0.000000000000     0          
C266     C      0.297000000000     0.203000000000     0.000000000000     0          
C267     C      0.348460000000     0.651540000000     0.500000000000     0          
C268     C      0.297000000000     0.703000000000     0.500000000000     0          
C269     C      0.651540000000     0.848460000000     0.000000000000     0          
C270     C      0.703000000000     0.797000000000     0.000000000000     0          
C271     C      0.651540000000     0.348460000000     0.500000000000     0          
C272     C      0.703000000000     0.297000000000     0.500000000000     0          
C273     C      0.151540000000     0.348460000000     0.000000000000     0          
C274     C      0.203000000000     0.297000000000     0.000000000000     0          
C275     C      0.651540000000     0.151540000000     0.000000000000     0          
C276     C      0.703000000000     0.203000000000     0.000000000000     0          
C277     C      0.651540000000     0.651540000000     0.500000000000     0          
C278     C      0.703000000000     0.703000000000     0.500000000000     0          
C279     C      0.151540000000     0.151540000000     0.500000000000     0          
C280     C      0.203000000000     0.203000000000     0.500000000000     0          
C281     C      0.348460000000     0.848460000000     0.000000000000     0          
C282     C      0.297000000000     0.797000000000     0.000000000000     0          
C283     C      0.348460000000     0.348460000000     0.500000000000     0          
C284     C      0.297000000000     0.297000000000     0.500000000000     0          
C285     C      0.000000000000     0.348460000000     0.151540000000     0          
C286     C      0.000000000000     0.297000000000     0.203000000000     0          
C287     C      0.500000000000     0.348460000000     0.651540000000     0          
C288     C      0.500000000000     0.297000000000     0.703000000000     0          
C289     C      0.000000000000     0.651540000000     0.848460000000     0          
C290     C      0.000000000000     0.703000000000     0.797000000000     0          
C291     C      0.000000000000     0.151540000000     0.348460000000     0          
C292     C      0.000000000000     0.203000000000     0.297000000000     0          
C293     C      0.500000000000     0.651540000000     0.348460000000     0          
C294     C      0.500000000000     0.703000000000     0.297000000000     0          
C295     C      0.000000000000     0.651540000000     0.151540000000     0          
C296     C      0.000000000000     0.703000000000     0.203000000000     0          
C297     C      0.500000000000     0.651540000000     0.651540000000     0          
C298     C      0.500000000000     0.703000000000     0.703000000000     0          
C299     C      0.500000000000     0.151540000000     0.151540000000     0          
C300     C      0.500000000000     0.203000000000     0.203000000000     0          
C301     C      0.000000000000     0.348460000000     0.848460000000     0          
C302     C      0.000000000000     0.297000000000     0.797000000000     0          
C303     C      0.500000000000     0.348460000000     0.348460000000     0          
C304     C      0.500000000000     0.297000000000     0.297000000000     0          
C305     C      0.151540000000     0.000000000000     0.348460000000     0          
C306     C      0.203000000000     0.000000000000     0.297000000000     0          
C307     C      0.151540000000     0.500000000000     0.848460000000     0          
C308     C      0.203000000000     0.500000000000     0.797000000000     0          
C309     C      0.848460000000     0.000000000000     0.651540000000     0          
C310     C      0.797000000000     0.000000000000     0.703000000000     0          
C311     C      0.848460000000     0.500000000000     0.151540000000     0          
C312     C      0.797000000000     0.500000000000     0.203000000000     0          
C313     C      0.348460000000     0.000000000000     0.151540000000     0          
C314     C      0.297000000000     0.000000000000     0.203000000000     0          
C315     C      0.151540000000     0.000000000000     0.651540000000     0          
C316     C      0.203000000000     0.000000000000     0.703000000000     0          
C317     C      0.151540000000     0.500000000000     0.151540000000     0          
C318     C      0.203000000000     0.500000000000     0.203000000000     0          
C319     C      0.848460000000     0.000000000000     0.348460000000     0          
C320     C      0.797000000000     0.000000000000     0.297000000000     0          
C321     C      0.848460000000     0.500000000000     0.848460000000     0          
C322     C      0.797000000000     0.500000000000     0.797000000000     0          
C323     C      0.348460000000     0.500000000000     0.348460000000     0          
C324     C      0.297000000000     0.500000000000     0.297000000000     0          
C325     C      0.151540000000     0.848460000000     0.500000000000     0          
C326     C      0.203000000000     0.797000000000     0.500000000000     0          
C327     C      0.848460000000     0.651540000000     0.000000000000     0          
C328     C      0.797000000000     0.703000000000     0.000000000000     0          
C329     C      0.848460000000     0.151540000000     0.500000000000     0          
C330     C      0.797000000000     0.203000000000     0.500000000000     0          
C331     C      0.151540000000     0.651540000000     0.000000000000     0          
C332     C      0.203000000000     0.703000000000     0.000000000000     0          
C333     C      0.848460000000     0.348460000000     0.000000000000     0          
C334     C      0.797000000000     0.297000000000     0.000000000000     0          
C335     C      0.848460000000     0.848460000000     0.500000000000     0          
C336     C      0.797000000000     0.797000000000     0.500000000000     0          
C337     C      0.348460000000     0.000000000000     0.848460000000     0          
C338     C      0.297000000000     0.000000000000     0.797000000000     0          
C339     C      0.651540000000     0.000000000000     0.151540000000     0          
C340     C      0.703000000000     0.000000000000     0.203000000000     0          
C341     C      0.651540000000     0.500000000000     0.651540000000     0          
C342     C      0.703000000000     0.500000000000     0.703000000000     0          
C343     C      0.651540000000     0.000000000000     0.848460000000     0          
C344     C      0.703000000000     0.000000000000     0.797000000000     0          
C345     C      0.651540000000     0.500000000000     0.348460000000     0          
C346     C      0.703000000000     0.500000000000     0.297000000000     0          
C347     C      0.348460000000     0.500000000000     0.651540000000     0          
C348     C      0.297000000000     0.500000000000     0.703000000000     0          
C349     C      0.000000000000     0.151540000000     0.651540000000     0          
C350     C      0.000000000000     0.203000000000     0.703000000000     0          
C351     C      0.000000000000     0.848460000000     0.348460000000     0          
C352     C      0.000000000000     0.797000000000     0.297000000000     0          
C353     C      0.500000000000     0.848460000000     0.848460000000     0          
C354     C      0.500000000000     0.797000000000     0.797000000000     0          
C355     C      0.500000000000     0.151540000000     0.848460000000     0          
C356     C      0.500000000000     0.203000000000     0.797000000000     0          
C357     C      0.000000000000     0.848460000000     0.651540000000     0          
C358     C      0.000000000000     0.797000000000     0.703000000000     0          
C359     C      0.500000000000     0.848460000000     0.151540000000     0          
C360     C      0.500000000000     0.797000000000     0.203000000000     0          
O361     O      0.433200000000     0.066800000000     0.066800000000     0          
O362     O      0.433200000000     0.566800000000     0.566800000000     0          
O363     O      0.566800000000     0.933200000000     0.066800000000     0          
O364     O      0.566800000000     0.433200000000     0.566800000000     0          
O365     O      0.066800000000     0.433200000000     0.066800000000     0          
O366     O      0.566800000000     0.066800000000     0.933200000000     0          
O367     O      0.566800000000     0.566800000000     0.433200000000     0          
O368     O      0.066800000000     0.066800000000     0.433200000000     0          
O369     O      0.433200000000     0.933200000000     0.933200000000     0          
O370     O      0.433200000000     0.433200000000     0.433200000000     0          
O371     O      0.066800000000     0.566800000000     0.933200000000     0          
O372     O      0.933200000000     0.566800000000     0.066800000000     0          
O373     O      0.933200000000     0.433200000000     0.933200000000     0          
O374     O      0.933200000000     0.066800000000     0.566800000000     0          
O375     O      0.066800000000     0.933200000000     0.566800000000     0          
O376     O      0.933200000000     0.933200000000     0.433200000000     0          
O377     O      0.066800000000     0.433200000000     0.933200000000     0          
O378     O      0.933200000000     0.566800000000     0.933200000000     0          
O379     O      0.933200000000     0.066800000000     0.433200000000     0          
O380     O      0.433200000000     0.066800000000     0.933200000000     0          
O381     O      0.066800000000     0.566800000000     0.066800000000     0          
O382     O      0.933200000000     0.433200000000     0.066800000000     0          
O383     O      0.433200000000     0.433200000000     0.566800000000     0          
O384     O      0.433200000000     0.566800000000     0.433200000000     0          
O385     O      0.566800000000     0.066800000000     0.066800000000     0          
O386     O      0.566800000000     0.566800000000     0.566800000000     0          
O387     O      0.566800000000     0.933200000000     0.933200000000     0          
O388     O      0.566800000000     0.433200000000     0.433200000000     0          
O389     O      0.066800000000     0.933200000000     0.433200000000     0          
O390     O      0.433200000000     0.933200000000     0.066800000000     0          
O391     O      0.066800000000     0.066800000000     0.566800000000     0          
O392     O      0.933200000000     0.933200000000     0.566800000000     0          
H393     H      0.222050000000     0.134760000000     0.023930000000     0          
H394     H      0.247040000000     0.590010000000     0.572970000000     0          
H395     H      0.128820000000     0.566280000000     0.474920000000     0          
H396     H      0.094170000000     0.628980000000     0.537630000000     0          
H397     H      0.752960000000     0.909990000000     0.072970000000     0          
H398     H      0.884090000000     0.868850000000     0.972760000000     0          
H399     H      0.892910000000     0.935880000000     0.039790000000     0          
H400     H      0.752960000000     0.409990000000     0.572970000000     0          
H401     H      0.884090000000     0.368850000000     0.472760000000     0          
H402     H      0.892910000000     0.435880000000     0.539790000000     0          
H403     H      0.777950000000     0.634760000000     0.476070000000     0          
H404     H      0.277950000000     0.634760000000     0.976070000000     0          
H405     H      0.222050000000     0.365240000000     0.476070000000     0          
H406     H      0.722050000000     0.365240000000     0.976070000000     0          
H407     H      0.023930000000     0.222050000000     0.134760000000     0          
H408     H      0.523930000000     0.222050000000     0.634760000000     0          
H409     H      0.023930000000     0.777950000000     0.865240000000     0          
H410     H      0.523930000000     0.777950000000     0.365240000000     0          
H411     H      0.927030000000     0.252960000000     0.590010000000     0          
H412     H      0.034310000000     0.370910000000     0.580040000000     0          
H413     H      0.953140000000     0.406090000000     0.615220000000     0          
H414     H      0.476070000000     0.777950000000     0.634760000000     0          
H415     H      0.927030000000     0.747040000000     0.409990000000     0          
H416     H      0.953140000000     0.593910000000     0.384780000000     0          
H417     H      0.034310000000     0.629090000000     0.419960000000     0          
H418     H      0.476070000000     0.222050000000     0.365240000000     0          
H419     H      0.590010000000     0.072970000000     0.747040000000     0          
H420     H      0.644100000000     0.998990000000     0.604210000000     0          
H421     H      0.551160000000     0.013570000000     0.618790000000     0          
H422     H      0.634760000000     0.523930000000     0.222050000000     0          
H423     H      0.365240000000     0.023930000000     0.277950000000     0          
H424     H      0.365240000000     0.523930000000     0.777950000000     0          
H425     H      0.134760000000     0.976070000000     0.777950000000     0          
H426     H      0.634760000000     0.476070000000     0.777950000000     0          
H427     H      0.865240000000     0.976070000000     0.222050000000     0          
H428     H      0.365240000000     0.476070000000     0.222050000000     0          
H429     H      0.634760000000     0.222050000000     0.476070000000     0          
H430     H      0.634760000000     0.722050000000     0.976070000000     0          
H431     H      0.365240000000     0.777950000000     0.476070000000     0          
H432     H      0.365240000000     0.277950000000     0.976070000000     0          
H433     H      0.134760000000     0.777950000000     0.023930000000     0          
H434     H      0.590010000000     0.752960000000     0.572970000000     0          
H435     H      0.554260000000     0.874620000000     0.492400000000     0          
H436     H      0.641000000000     0.902380000000     0.520150000000     0          
H437     H      0.865240000000     0.222050000000     0.023930000000     0          
H438     H      0.409990000000     0.247040000000     0.572970000000     0          
H439     H      0.355900000000     0.104210000000     0.498990000000     0          
H440     H      0.448840000000     0.118790000000     0.513570000000     0          
H441     H      0.222050000000     0.523930000000     0.365240000000     0          
H442     H      0.722050000000     0.023930000000     0.365240000000     0          
H443     H      0.777950000000     0.523930000000     0.634760000000     0          
H444     H      0.252960000000     0.072970000000     0.590010000000     0          
H445     H      0.371180000000     0.974920000000     0.566280000000     0          
H446     H      0.405830000000     0.037630000000     0.628980000000     0          
H447     H      0.777950000000     0.976070000000     0.865240000000     0          
H448     H      0.777950000000     0.476070000000     0.365240000000     0          
H449     H      0.222050000000     0.976070000000     0.134760000000     0          
H450     H      0.222050000000     0.476070000000     0.634760000000     0          
H451     H      0.023930000000     0.134760000000     0.777950000000     0          
H452     H      0.523930000000     0.634760000000     0.777950000000     0          
H453     H      0.023930000000     0.865240000000     0.222050000000     0          
H454     H      0.523930000000     0.365240000000     0.222050000000     0          
H455     H      0.976070000000     0.634760000000     0.722050000000     0          
H456     H      0.476070000000     0.634760000000     0.222050000000     0          
H457     H      0.976070000000     0.365240000000     0.277950000000     0          
H458     H      0.476070000000     0.365240000000     0.777950000000     0          
H459     H      0.277950000000     0.865240000000     0.476070000000     0          
H460     H      0.252960000000     0.409990000000     0.927030000000     0          
H461     H      0.405830000000     0.371020000000     0.962370000000     0          
H462     H      0.371180000000     0.433720000000     0.025080000000     0          
H463     H      0.722050000000     0.134760000000     0.476070000000     0          
H464     H      0.722050000000     0.634760000000     0.976070000000     0          
H465     H      0.222050000000     0.865240000000     0.023930000000     0          
H466     H      0.722050000000     0.865240000000     0.523930000000     0          
H467     H      0.777950000000     0.134760000000     0.023930000000     0          
H468     H      0.277950000000     0.134760000000     0.523930000000     0          
H469     H      0.976070000000     0.277950000000     0.365240000000     0          
H470     H      0.476070000000     0.277950000000     0.865240000000     0          
H471     H      0.976070000000     0.722050000000     0.634760000000     0          
H472     H      0.476070000000     0.722050000000     0.134760000000     0          
H473     H      0.023930000000     0.222050000000     0.865240000000     0          
H474     H      0.572970000000     0.747040000000     0.909990000000     0          
H475     H      0.546860000000     0.593910000000     0.884780000000     0          
H476     H      0.465690000000     0.629090000000     0.919960000000     0          
H477     H      0.023930000000     0.777950000000     0.134760000000     0          
H478     H      0.572970000000     0.252960000000     0.090010000000     0          
H479     H      0.465690000000     0.370910000000     0.080040000000     0          
H480     H      0.546860000000     0.406090000000     0.115220000000     0          
H481     H      0.865240000000     0.976070000000     0.777950000000     0          
H482     H      0.909990000000     0.427030000000     0.252960000000     0          
H483     H      0.948840000000     0.486430000000     0.381210000000     0          
H484     H      0.855900000000     0.501010000000     0.395790000000     0          
H485     H      0.090010000000     0.927030000000     0.247040000000     0          
H486     H      0.141000000000     0.979850000000     0.097620000000     0          
H487     H      0.054260000000     0.007600000000     0.125380000000     0          
H488     H      0.090010000000     0.427030000000     0.747040000000     0          
H489     H      0.141000000000     0.479850000000     0.597620000000     0          
H490     H      0.054260000000     0.507600000000     0.625380000000     0          
H491     H      0.865240000000     0.523930000000     0.722050000000     0          
H492     H      0.365240000000     0.023930000000     0.722050000000     0          
H493     H      0.134760000000     0.523930000000     0.277950000000     0          
H494     H      0.634760000000     0.023930000000     0.277950000000     0          
H495     H      0.865240000000     0.777950000000     0.023930000000     0          
H496     H      0.865240000000     0.277950000000     0.523930000000     0          
H497     H      0.134760000000     0.222050000000     0.023930000000     0          
H498     H      0.134760000000     0.722050000000     0.523930000000     0          
H499     H      0.865240000000     0.722050000000     0.476070000000     0          
H500     H      0.409990000000     0.747040000000     0.927030000000     0          
H501     H      0.359000000000     0.597620000000     0.979850000000     0          
H502     H      0.445740000000     0.625380000000     0.007600000000     0          
H503     H      0.134760000000     0.277950000000     0.476070000000     0          
H504     H      0.590010000000     0.252960000000     0.927030000000     0          
H505     H      0.551160000000     0.381210000000     0.986430000000     0          
H506     H      0.644100000000     0.395790000000     0.001010000000     0          
H507     H      0.752960000000     0.927030000000     0.090010000000     0          
H508     H      0.892910000000     0.960210000000     0.064120000000     0          
H509     H      0.884090000000     0.027240000000     0.131150000000     0          
H510     H      0.252960000000     0.427030000000     0.090010000000     0          
H511     H      0.392910000000     0.460210000000     0.064120000000     0          
H512     H      0.384090000000     0.527240000000     0.131150000000     0          
H513     H      0.222050000000     0.976070000000     0.865240000000     0          
H514     H      0.747040000000     0.427030000000     0.909990000000     0          
H515     H      0.594170000000     0.462370000000     0.871020000000     0          
H516     H      0.628820000000     0.525080000000     0.933720000000     0          
H517     H      0.722050000000     0.023930000000     0.634760000000     0          
H518     H      0.722050000000     0.523930000000     0.134760000000     0          
H519     H      0.277950000000     0.023930000000     0.365240000000     0          
H520     H      0.277950000000     0.523930000000     0.865240000000     0          
H521     H      0.976070000000     0.365240000000     0.722050000000     0          
H522     H      0.476070000000     0.865240000000     0.722050000000     0          
H523     H      0.976070000000     0.634760000000     0.277950000000     0          
H524     H      0.476070000000     0.134760000000     0.277950000000     0          
H525     H      0.072970000000     0.909990000000     0.752960000000     0          
H526     H      0.962070000000     0.889880000000     0.876010000000     0          
H527     H      0.050480000000     0.914860000000     0.900990000000     0          
H528     H      0.572970000000     0.909990000000     0.252960000000     0          
H529     H      0.462070000000     0.889880000000     0.376010000000     0          
H530     H      0.550480000000     0.914860000000     0.400990000000     0          
H531     H      0.072970000000     0.090010000000     0.247040000000     0          
H532     H      0.050480000000     0.085140000000     0.099010000000     0          
H533     H      0.962070000000     0.110120000000     0.123990000000     0          
H534     H      0.572970000000     0.090010000000     0.747040000000     0          
H535     H      0.550480000000     0.085140000000     0.599010000000     0          
H536     H      0.462070000000     0.110120000000     0.623990000000     0          


