data_BIKMUG

_audit_creation_method RASPA-1.0
_audit_creation_date 2020-4-3
_audit_author_name 'Rocio Bueno-Perez'

_cell_length_a    30.2962
_cell_length_b    30.2962
_cell_length_c    15.0605
_cell_angle_alpha 90
_cell_angle_beta  90
_cell_angle_gamma 120
_cell_volume      11971.4

_symmetry_cell_setting          trigonal
_symmetry_space_group_name_Hall 'P 1'
_symmetry_space_group_name_H-M  'P 1'
_symmetry_Int_Tables_number     1

_symmetry_equiv_pos_as_xyz 'x,y,z'

loop_
_atom_site_label
_atom_site_type_symbol
_atom_site_fract_x
_atom_site_fract_y
_atom_site_fract_z
_atom_site_charge
Zr1      Zr     0.072760000000     0.058280000000     0.094960000000     0          
O1       O      0.058570000000     0.096860000000     0.208690000000     0          
O2       O      0.973090000000     0.065570000000     0.211070000000     0          
O3       O      0.216510000000     0.526140000000     0.604180000000     0          
O4       O      0.254460000000     0.516490000000     0.727090000000     0          
O6       O      0.057710000000     0.985610000000     0.047170000000     0          
C1       C      0.018170000000     0.093820000000     0.239290000000     0          
C2       C      0.023970000000     0.125360000000     0.320080000000     0          
C3       C      0.068770000000     0.170360000000     0.336770000000     0          
H1       H      0.095790000000     0.182840000000     0.294840000000     0          
C4       C      0.074410000000     0.197110000000     0.413600000000     0          
H2       H      0.104850000000     0.228660000000     0.422870000000     0          
C5       C      0.036560000000     0.179000000000     0.478030000000     0          
C6       C      0.991410000000     0.135190000000     0.457900000000     0          
H3       H      0.964140000000     0.122580000000     0.499350000000     0          
C7       C      0.984870000000     0.109230000000     0.379200000000     0          
H4       H      0.952940000000     0.079970000000     0.366240000000     0          
C8       C      0.044210000000     0.204970000000     0.564710000000     0          
C9       C      0.073930000000     0.257840000000     0.571550000000     0          
H5       H      0.087970000000     0.277540000000     0.519310000000     0          
C10      C      0.083470000000     0.282420000000     0.653590000000     0          
C11      C      0.062870000000     0.252910000000     0.730350000000     0          
H6       H      0.068990000000     0.269030000000     0.786700000000     0          
C12      C      0.033660000000     0.200410000000     0.724250000000     0          
H7       H      0.020140000000     0.180600000000     0.776560000000     0          
C13      C      0.024050000000     0.176640000000     0.642700000000     0          
H8       H      0.003490000000     0.140600000000     0.639330000000     0          
C14      C      0.117520000000     0.338790000000     0.658320000000     0          
C15      C      0.114480000000     0.370420000000     0.596370000000     0          
H9       H      0.089230000000     0.356360000000     0.551250000000     0          
C16      C      0.147850000000     0.422740000000     0.598770000000     0          
H10      H      0.145200000000     0.444110000000     0.555470000000     0          
C17      C      0.184660000000     0.443680000000     0.663560000000     0          
C18      C      0.187790000000     0.412540000000     0.726560000000     0          
H11      H      0.212900000000     0.426640000000     0.771900000000     0          
C19      C      0.154130000000     0.360450000000     0.723640000000     0          
H12      H      0.156360000000     0.339190000000     0.767670000000     0          
C20      C      0.221370000000     0.499820000000     0.665390000000     0          
O5       O      0.000000000000     0.000000000000     0.141210000000     0          
Zr1      Zr     0.941720000000     0.014480000000     0.094960000000     0          
O1       O      0.903140000000     0.961710000000     0.208690000000     0          
O2       O      0.934430000000     0.907520000000     0.211070000000     0          
O3       O      0.473860000000     0.690370000000     0.604180000000     0          
O4       O      0.483510000000     0.737970000000     0.727090000000     0          
O6       O      0.014390000000     0.072100000000     0.047170000000     0          
C1       C      0.906180000000     0.924350000000     0.239290000000     0          
C2       C      0.874640000000     0.898610000000     0.320080000000     0          
C3       C      0.829640000000     0.898410000000     0.336770000000     0          
H1       H      0.817160000000     0.912950000000     0.294840000000     0          
C4       C      0.802890000000     0.877300000000     0.413600000000     0          
H2       H      0.771340000000     0.876190000000     0.422870000000     0          
C5       C      0.821000000000     0.857560000000     0.478030000000     0          
C6       C      0.864810000000     0.856220000000     0.457900000000     0          
H3       H      0.877420000000     0.841560000000     0.499350000000     0          
C7       C      0.890770000000     0.875640000000     0.379200000000     0          
H4       H      0.920030000000     0.872970000000     0.366240000000     0          
C8       C      0.795030000000     0.839240000000     0.564710000000     0          
C9       C      0.742160000000     0.816090000000     0.571550000000     0          
H5       H      0.722460000000     0.810430000000     0.519310000000     0          
C10      C      0.717580000000     0.801050000000     0.653590000000     0          
C11      C      0.747090000000     0.809960000000     0.730350000000     0          
H6       H      0.730970000000     0.799960000000     0.786700000000     0          
C12      C      0.799590000000     0.833250000000     0.724250000000     0          
H7       H      0.819400000000     0.839540000000     0.776560000000     0          
C13      C      0.823360000000     0.847410000000     0.642700000000     0          
H8       H      0.859400000000     0.862890000000     0.639330000000     0          
C14      C      0.661210000000     0.778730000000     0.658320000000     0          
C15      C      0.629580000000     0.744060000000     0.596370000000     0          
H9       H      0.643640000000     0.732870000000     0.551250000000     0          
C16      C      0.577260000000     0.725110000000     0.598770000000     0          
H10      H      0.555890000000     0.701090000000     0.555470000000     0          
C17      C      0.556320000000     0.740980000000     0.663560000000     0          
C18      C      0.587460000000     0.775250000000     0.726560000000     0          
H11      H      0.573360000000     0.786260000000     0.771900000000     0          
C19      C      0.639550000000     0.793680000000     0.723640000000     0          
H12      H      0.660810000000     0.817170000000     0.767670000000     0          
C20      C      0.500180000000     0.721550000000     0.665390000000     0          
Zr1      Zr     0.985520000000     0.927240000000     0.094960000000     0          
O1       O      0.038290000000     0.941430000000     0.208690000000     0          
O2       O      0.092480000000     0.026910000000     0.211070000000     0          
O3       O      0.309630000000     0.783490000000     0.604180000000     0          
O4       O      0.262030000000     0.745540000000     0.727090000000     0          
O6       O      0.927900000000     0.942290000000     0.047170000000     0          
C1       C      0.075650000000     0.981830000000     0.239290000000     0          
C2       C      0.101390000000     0.976030000000     0.320080000000     0          
C3       C      0.101590000000     0.931230000000     0.336770000000     0          
H1       H      0.087050000000     0.904210000000     0.294840000000     0          
C4       C      0.122700000000     0.925590000000     0.413600000000     0          
H2       H      0.123810000000     0.895150000000     0.422870000000     0          
C5       C      0.142440000000     0.963440000000     0.478030000000     0          
C6       C      0.143780000000     0.008590000000     0.457900000000     0          
H3       H      0.158440000000     0.035860000000     0.499350000000     0          
C7       C      0.124360000000     0.015130000000     0.379200000000     0          
H4       H      0.127030000000     0.047060000000     0.366240000000     0          
C8       C      0.160760000000     0.955790000000     0.564710000000     0          
C9       C      0.183910000000     0.926070000000     0.571550000000     0          
H5       H      0.189570000000     0.912030000000     0.519310000000     0          
C10      C      0.198950000000     0.916530000000     0.653590000000     0          
C11      C      0.190040000000     0.937130000000     0.730350000000     0          
H6       H      0.200040000000     0.931010000000     0.786700000000     0          
C12      C      0.166750000000     0.966340000000     0.724250000000     0          
H7       H      0.160460000000     0.979860000000     0.776560000000     0          
C13      C      0.152590000000     0.975950000000     0.642700000000     0          
H8       H      0.137110000000     0.996510000000     0.639330000000     0          
C14      C      0.221270000000     0.882480000000     0.658320000000     0          
C15      C      0.255940000000     0.885520000000     0.596370000000     0          
H9       H      0.267130000000     0.910770000000     0.551250000000     0          
C16      C      0.274890000000     0.852150000000     0.598770000000     0          
H10      H      0.298910000000     0.854800000000     0.555470000000     0          
C17      C      0.259020000000     0.815340000000     0.663560000000     0          
C18      C      0.224750000000     0.812210000000     0.726560000000     0          
H11      H      0.213740000000     0.787100000000     0.771900000000     0          
C19      C      0.206320000000     0.845870000000     0.723640000000     0          
H12      H      0.182830000000     0.843640000000     0.767670000000     0          
C20      C      0.278450000000     0.778630000000     0.665390000000     0          
Zr1      Zr     0.927240000000     0.941720000000     0.905040000000     0          
O1       O      0.941430000000     0.903140000000     0.791310000000     0          
O2       O      0.026910000000     0.934430000000     0.788930000000     0          
O3       O      0.783490000000     0.473860000000     0.395820000000     0          
O4       O      0.745540000000     0.483510000000     0.272910000000     0          
O6       O      0.942290000000     0.014390000000     0.952830000000     0          
C1       C      0.981830000000     0.906180000000     0.760710000000     0          
C2       C      0.976030000000     0.874640000000     0.679920000000     0          
C3       C      0.931230000000     0.829640000000     0.663230000000     0          
H1       H      0.904210000000     0.817160000000     0.705160000000     0          
C4       C      0.925590000000     0.802890000000     0.586400000000     0          
H2       H      0.895150000000     0.771340000000     0.577130000000     0          
C5       C      0.963440000000     0.821000000000     0.521970000000     0          
C6       C      0.008590000000     0.864810000000     0.542100000000     0          
H3       H      0.035860000000     0.877420000000     0.500650000000     0          
C7       C      0.015130000000     0.890770000000     0.620800000000     0          
H4       H      0.047060000000     0.920030000000     0.633760000000     0          
C8       C      0.955790000000     0.795030000000     0.435290000000     0          
C9       C      0.926070000000     0.742160000000     0.428450000000     0          
H5       H      0.912030000000     0.722460000000     0.480690000000     0          
C10      C      0.916530000000     0.717580000000     0.346410000000     0          
C11      C      0.937130000000     0.747090000000     0.269650000000     0          
H6       H      0.931010000000     0.730970000000     0.213300000000     0          
C12      C      0.966340000000     0.799590000000     0.275750000000     0          
H7       H      0.979860000000     0.819400000000     0.223440000000     0          
C13      C      0.975950000000     0.823360000000     0.357300000000     0          
H8       H      0.996510000000     0.859400000000     0.360670000000     0          
C14      C      0.882480000000     0.661210000000     0.341680000000     0          
C15      C      0.885520000000     0.629580000000     0.403630000000     0          
H9       H      0.910770000000     0.643640000000     0.448750000000     0          
C16      C      0.852150000000     0.577260000000     0.401230000000     0          
H10      H      0.854800000000     0.555890000000     0.444530000000     0          
C17      C      0.815340000000     0.556320000000     0.336440000000     0          
C18      C      0.812210000000     0.587460000000     0.273440000000     0          
H11      H      0.787100000000     0.573360000000     0.228100000000     0          
C19      C      0.845870000000     0.639550000000     0.276360000000     0          
H12      H      0.843640000000     0.660810000000     0.232330000000     0          
C20      C      0.778630000000     0.500180000000     0.334610000000     0          
O5       O      0.000000000000     0.000000000000     0.858790000000     0          
Zr1      Zr     0.058280000000     0.985520000000     0.905040000000     0          
O1       O      0.096860000000     0.038290000000     0.791310000000     0          
O2       O      0.065570000000     0.092480000000     0.788930000000     0          
O3       O      0.526140000000     0.309630000000     0.395820000000     0          
O4       O      0.516490000000     0.262030000000     0.272910000000     0          
O6       O      0.985610000000     0.927900000000     0.952830000000     0          
C1       C      0.093820000000     0.075650000000     0.760710000000     0          
C2       C      0.125360000000     0.101390000000     0.679920000000     0          
C3       C      0.170360000000     0.101590000000     0.663230000000     0          
H1       H      0.182840000000     0.087050000000     0.705160000000     0          
C4       C      0.197110000000     0.122700000000     0.586400000000     0          
H2       H      0.228660000000     0.123810000000     0.577130000000     0          
C5       C      0.179000000000     0.142440000000     0.521970000000     0          
C6       C      0.135190000000     0.143780000000     0.542100000000     0          
H3       H      0.122580000000     0.158440000000     0.500650000000     0          
C7       C      0.109230000000     0.124360000000     0.620800000000     0          
H4       H      0.079970000000     0.127030000000     0.633760000000     0          
C8       C      0.204970000000     0.160760000000     0.435290000000     0          
C9       C      0.257840000000     0.183910000000     0.428450000000     0          
H5       H      0.277540000000     0.189570000000     0.480690000000     0          
C10      C      0.282420000000     0.198950000000     0.346410000000     0          
C11      C      0.252910000000     0.190040000000     0.269650000000     0          
H6       H      0.269030000000     0.200040000000     0.213300000000     0          
C12      C      0.200410000000     0.166750000000     0.275750000000     0          
H7       H      0.180600000000     0.160460000000     0.223440000000     0          
C13      C      0.176640000000     0.152590000000     0.357300000000     0          
H8       H      0.140600000000     0.137110000000     0.360670000000     0          
C14      C      0.338790000000     0.221270000000     0.341680000000     0          
C15      C      0.370420000000     0.255940000000     0.403630000000     0          
H9       H      0.356360000000     0.267130000000     0.448750000000     0          
C16      C      0.422740000000     0.274890000000     0.401230000000     0          
H10      H      0.444110000000     0.298910000000     0.444530000000     0          
C17      C      0.443680000000     0.259020000000     0.336440000000     0          
C18      C      0.412540000000     0.224750000000     0.273440000000     0          
H11      H      0.426640000000     0.213740000000     0.228100000000     0          
C19      C      0.360450000000     0.206320000000     0.276360000000     0          
H12      H      0.339190000000     0.182830000000     0.232330000000     0          
C20      C      0.499820000000     0.278450000000     0.334610000000     0          
Zr1      Zr     0.014480000000     0.072760000000     0.905040000000     0          
O1       O      0.961710000000     0.058570000000     0.791310000000     0          
O2       O      0.907520000000     0.973090000000     0.788930000000     0          
O3       O      0.690370000000     0.216510000000     0.395820000000     0          
O4       O      0.737970000000     0.254460000000     0.272910000000     0          
O6       O      0.072100000000     0.057710000000     0.952830000000     0          
C1       C      0.924350000000     0.018170000000     0.760710000000     0          
C2       C      0.898610000000     0.023970000000     0.679920000000     0          
C3       C      0.898410000000     0.068770000000     0.663230000000     0          
H1       H      0.912950000000     0.095790000000     0.705160000000     0          
C4       C      0.877300000000     0.074410000000     0.586400000000     0          
H2       H      0.876190000000     0.104850000000     0.577130000000     0          
C5       C      0.857560000000     0.036560000000     0.521970000000     0          
C6       C      0.856220000000     0.991410000000     0.542100000000     0          
H3       H      0.841560000000     0.964140000000     0.500650000000     0          
C7       C      0.875640000000     0.984870000000     0.620800000000     0          
H4       H      0.872970000000     0.952940000000     0.633760000000     0          
C8       C      0.839240000000     0.044210000000     0.435290000000     0          
C9       C      0.816090000000     0.073930000000     0.428450000000     0          
H5       H      0.810430000000     0.087970000000     0.480690000000     0          
C10      C      0.801050000000     0.083470000000     0.346410000000     0          
C11      C      0.809960000000     0.062870000000     0.269650000000     0          
H6       H      0.799960000000     0.068990000000     0.213300000000     0          
C12      C      0.833250000000     0.033660000000     0.275750000000     0          
H7       H      0.839540000000     0.020140000000     0.223440000000     0          
C13      C      0.847410000000     0.024050000000     0.357300000000     0          
H8       H      0.862890000000     0.003490000000     0.360670000000     0          
C14      C      0.778730000000     0.117520000000     0.341680000000     0          
C15      C      0.744060000000     0.114480000000     0.403630000000     0          
H9       H      0.732870000000     0.089230000000     0.448750000000     0          
C16      C      0.725110000000     0.147850000000     0.401230000000     0          
H10      H      0.701090000000     0.145200000000     0.444530000000     0          
C17      C      0.740980000000     0.184660000000     0.336440000000     0          
C18      C      0.775250000000     0.187790000000     0.273440000000     0          
H11      H      0.786260000000     0.212900000000     0.228100000000     0          
C19      C      0.793680000000     0.154130000000     0.276360000000     0          
H12      H      0.817170000000     0.156360000000     0.232330000000     0          
C20      C      0.721550000000     0.221370000000     0.334610000000     0          
Zr1      Zr     0.739426666667     0.391613333333     0.428293333333     0          
O1       O      0.725236666667     0.430193333333     0.542023333333     0          
O2       O      0.639756666667     0.398903333333     0.544403333333     0          
O3       O      0.883176666667     0.859473333333     0.937513333333     0          
O4       O      0.921126666667     0.849823333333     0.060423333333     0          
O6       O      0.724376666667     0.318943333333     0.380503333333     0          
C1       C      0.684836666667     0.427153333333     0.572623333333     0          
C2       C      0.690636666667     0.458693333333     0.653413333333     0          
C3       C      0.735436666667     0.503693333333     0.670103333333     0          
H1       H      0.762456666667     0.516173333333     0.628173333333     0          
C4       C      0.741076666667     0.530443333333     0.746933333333     0          
H2       H      0.771516666667     0.561993333333     0.756203333333     0          
C5       C      0.703226666667     0.512333333333     0.811363333333     0          
C6       C      0.658076666667     0.468523333333     0.791233333333     0          
H3       H      0.630806666667     0.455913333333     0.832683333333     0          
C7       C      0.651536666667     0.442563333333     0.712533333333     0          
H4       H      0.619606666667     0.413303333333     0.699573333333     0          
C8       C      0.710876666667     0.538303333333     0.898043333333     0          
C9       C      0.740596666667     0.591173333333     0.904883333333     0          
H5       H      0.754636666667     0.610873333333     0.852643333333     0          
C10      C      0.750136666667     0.615753333333     0.986923333333     0          
C11      C      0.729536666667     0.586243333333     0.063683333333     0          
H6       H      0.735656666667     0.602363333333     0.120033333333     0          
C12      C      0.700326666667     0.533743333333     0.057583333333     0          
H7       H      0.686806666667     0.513933333333     0.109893333333     0          
C13      C      0.690716666667     0.509973333333     0.976033333333     0          
H8       H      0.670156666667     0.473933333333     0.972663333333     0          
C14      C      0.784186666667     0.672123333333     0.991653333333     0          
C15      C      0.781146666667     0.703753333333     0.929703333333     0          
H9       H      0.755896666667     0.689693333333     0.884583333333     0          
C16      C      0.814516666667     0.756073333333     0.932103333333     0          
H10      H      0.811866666667     0.777443333333     0.888803333333     0          
C17      C      0.851326666667     0.777013333333     0.996893333333     0          
C18      C      0.854456666667     0.745873333333     0.059893333333     0          
H11      H      0.879566666667     0.759973333333     0.105233333333     0          
C19      C      0.820796666667     0.693783333333     0.056973333333     0          
H12      H      0.823026666667     0.672523333333     0.101003333333     0          
C20      C      0.888036666667     0.833153333333     0.998723333333     0          
O5       O      0.666666666667     0.333333333333     0.474543333333     0          
Zr1      Zr     0.608386666667     0.347813333333     0.428293333333     0          
O1       O      0.569806666667     0.295043333333     0.542023333333     0          
O2       O      0.601096666667     0.240853333333     0.544403333333     0          
O3       O      0.140526666667     0.023703333333     0.937513333333     0          
O4       O      0.150176666667     0.071303333333     0.060423333333     0          
O6       O      0.681056666667     0.405433333333     0.380503333333     0          
C1       C      0.572846666667     0.257683333333     0.572623333333     0          
C2       C      0.541306666667     0.231943333333     0.653413333333     0          
C3       C      0.496306666667     0.231743333333     0.670103333333     0          
H1       H      0.483826666667     0.246283333333     0.628173333333     0          
C4       C      0.469556666667     0.210633333333     0.746933333333     0          
H2       H      0.438006666667     0.209523333333     0.756203333333     0          
C5       C      0.487666666667     0.190893333333     0.811363333333     0          
C6       C      0.531476666667     0.189553333333     0.791233333333     0          
H3       H      0.544086666667     0.174893333333     0.832683333333     0          
C7       C      0.557436666667     0.208973333333     0.712533333333     0          
H4       H      0.586696666667     0.206303333333     0.699573333333     0          
C8       C      0.461696666667     0.172573333333     0.898043333333     0          
C9       C      0.408826666667     0.149423333333     0.904883333333     0          
H5       H      0.389126666667     0.143763333333     0.852643333333     0          
C10      C      0.384246666667     0.134383333333     0.986923333333     0          
C11      C      0.413756666667     0.143293333333     0.063683333333     0          
H6       H      0.397636666667     0.133293333333     0.120033333333     0          
C12      C      0.466256666667     0.166583333333     0.057583333333     0          
H7       H      0.486066666667     0.172873333333     0.109893333333     0          
C13      C      0.490026666667     0.180743333333     0.976033333333     0          
H8       H      0.526066666667     0.196223333333     0.972663333333     0          
C14      C      0.327876666667     0.112063333333     0.991653333333     0          
C15      C      0.296246666667     0.077393333333     0.929703333333     0          
H9       H      0.310306666667     0.066203333333     0.884583333333     0          
C16      C      0.243926666667     0.058443333333     0.932103333333     0          
H10      H      0.222556666667     0.034423333333     0.888803333333     0          
C17      C      0.222986666667     0.074313333333     0.996893333333     0          
C18      C      0.254126666667     0.108583333333     0.059893333333     0          
H11      H      0.240026666667     0.119593333333     0.105233333333     0          
C19      C      0.306216666667     0.127013333333     0.056973333333     0          
H12      H      0.327476666667     0.150503333333     0.101003333333     0          
C20      C      0.166846666667     0.054883333333     0.998723333333     0          
Zr1      Zr     0.652186666667     0.260573333333     0.428293333333     0          
O1       O      0.704956666667     0.274763333333     0.542023333333     0          
O2       O      0.759146666667     0.360243333333     0.544403333333     0          
O3       O      0.976296666667     0.116823333333     0.937513333333     0          
O4       O      0.928696666667     0.078873333333     0.060423333333     0          
O6       O      0.594566666667     0.275623333333     0.380503333333     0          
C1       C      0.742316666667     0.315163333333     0.572623333333     0          
C2       C      0.768056666667     0.309363333333     0.653413333333     0          
C3       C      0.768256666667     0.264563333333     0.670103333333     0          
H1       H      0.753716666667     0.237543333333     0.628173333333     0          
C4       C      0.789366666667     0.258923333333     0.746933333333     0          
H2       H      0.790476666667     0.228483333333     0.756203333333     0          
C5       C      0.809106666667     0.296773333333     0.811363333333     0          
C6       C      0.810446666667     0.341923333333     0.791233333333     0          
H3       H      0.825106666667     0.369193333333     0.832683333333     0          
C7       C      0.791026666667     0.348463333333     0.712533333333     0          
H4       H      0.793696666667     0.380393333333     0.699573333333     0          
C8       C      0.827426666667     0.289123333333     0.898043333333     0          
C9       C      0.850576666667     0.259403333333     0.904883333333     0          
H5       H      0.856236666667     0.245363333333     0.852643333333     0          
C10      C      0.865616666667     0.249863333333     0.986923333333     0          
C11      C      0.856706666667     0.270463333333     0.063683333333     0          
H6       H      0.866706666667     0.264343333333     0.120033333333     0          
C12      C      0.833416666667     0.299673333333     0.057583333333     0          
H7       H      0.827126666667     0.313193333333     0.109893333333     0          
C13      C      0.819256666667     0.309283333333     0.976033333333     0          
H8       H      0.803776666667     0.329843333333     0.972663333333     0          
C14      C      0.887936666667     0.215813333333     0.991653333333     0          
C15      C      0.922606666667     0.218853333333     0.929703333333     0          
H9       H      0.933796666667     0.244103333333     0.884583333333     0          
C16      C      0.941556666667     0.185483333333     0.932103333333     0          
H10      H      0.965576666667     0.188133333333     0.888803333333     0          
C17      C      0.925686666667     0.148673333333     0.996893333333     0          
C18      C      0.891416666667     0.145543333333     0.059893333333     0          
H11      H      0.880406666667     0.120433333333     0.105233333333     0          
C19      C      0.872986666667     0.179203333333     0.056973333333     0          
H12      H      0.849496666667     0.176973333333     0.101003333333     0          
C20      C      0.945116666667     0.111963333333     0.998723333333     0          
Zr1      Zr     0.593906666667     0.275053333333     0.238373333333     0          
O1       O      0.608096666667     0.236473333333     0.124643333333     0          
O2       O      0.693576666667     0.267763333333     0.122263333333     0          
O3       O      0.450156666667     0.807193333333     0.729153333333     0          
O4       O      0.412206666667     0.816843333333     0.606243333333     0          
O6       O      0.608956666667     0.347723333333     0.286163333333     0          
C1       C      0.648496666667     0.239513333333     0.094043333333     0          
C2       C      0.642696666667     0.207973333333     0.013253333333     0          
C3       C      0.597896666667     0.162973333333     0.996563333333     0          
H1       H      0.570876666667     0.150493333333     0.038493333333     0          
C4       C      0.592256666667     0.136223333333     0.919733333333     0          
H2       H      0.561816666667     0.104673333333     0.910463333333     0          
C5       C      0.630106666667     0.154333333333     0.855303333333     0          
C6       C      0.675256666667     0.198143333333     0.875433333333     0          
H3       H      0.702526666667     0.210753333333     0.833983333333     0          
C7       C      0.681796666667     0.224103333333     0.954133333333     0          
H4       H      0.713726666667     0.253363333333     0.967093333333     0          
C8       C      0.622456666667     0.128363333333     0.768623333333     0          
C9       C      0.592736666667     0.075493333333     0.761783333333     0          
H5       H      0.578696666667     0.055793333333     0.814023333333     0          
C10      C      0.583196666667     0.050913333333     0.679743333333     0          
C11      C      0.603796666667     0.080423333333     0.602983333333     0          
H6       H      0.597676666667     0.064303333333     0.546633333333     0          
C12      C      0.633006666667     0.132923333333     0.609083333333     0          
H7       H      0.646526666667     0.152733333333     0.556773333333     0          
C13      C      0.642616666667     0.156693333333     0.690633333333     0          
H8       H      0.663176666667     0.192733333333     0.694003333333     0          
C14      C      0.549146666667     0.994543333333     0.675013333333     0          
C15      C      0.552186666667     0.962913333333     0.736963333333     0          
H9       H      0.577436666667     0.976973333333     0.782083333333     0          
C16      C      0.518816666667     0.910593333333     0.734563333333     0          
H10      H      0.521466666667     0.889223333333     0.777863333333     0          
C17      C      0.482006666667     0.889653333333     0.669773333333     0          
C18      C      0.478876666667     0.920793333333     0.606773333333     0          
H11      H      0.453766666667     0.906693333333     0.561433333333     0          
C19      C      0.512536666667     0.972883333333     0.609693333333     0          
H12      H      0.510306666667     0.994143333333     0.565663333333     0          
C20      C      0.445296666667     0.833513333333     0.667943333333     0          
O5       O      0.666666666667     0.333333333333     0.192123333333     0          
Zr1      Zr     0.724946666667     0.318853333333     0.238373333333     0          
O1       O      0.763526666667     0.371623333333     0.124643333333     0          
O2       O      0.732236666667     0.425813333333     0.122263333333     0          
O3       O      0.192806666667     0.642963333333     0.729153333333     0          
O4       O      0.183156666667     0.595363333333     0.606243333333     0          
O6       O      0.652276666667     0.261233333333     0.286163333333     0          
C1       C      0.760486666667     0.408983333333     0.094043333333     0          
C2       C      0.792026666667     0.434723333333     0.013253333333     0          
C3       C      0.837026666667     0.434923333333     0.996563333333     0          
H1       H      0.849506666667     0.420383333333     0.038493333333     0          
C4       C      0.863776666667     0.456033333333     0.919733333333     0          
H2       H      0.895326666667     0.457143333333     0.910463333333     0          
C5       C      0.845666666667     0.475773333333     0.855303333333     0          
C6       C      0.801856666667     0.477113333333     0.875433333333     0          
H3       H      0.789246666667     0.491773333333     0.833983333333     0          
C7       C      0.775896666667     0.457693333333     0.954133333333     0          
H4       H      0.746636666667     0.460363333333     0.967093333333     0          
C8       C      0.871636666667     0.494093333333     0.768623333333     0          
C9       C      0.924506666667     0.517243333333     0.761783333333     0          
H5       H      0.944206666667     0.522903333333     0.814023333333     0          
C10      C      0.949086666667     0.532283333333     0.679743333333     0          
C11      C      0.919576666667     0.523373333333     0.602983333333     0          
H6       H      0.935696666667     0.533373333333     0.546633333333     0          
C12      C      0.867076666667     0.500083333333     0.609083333333     0          
H7       H      0.847266666667     0.493793333333     0.556773333333     0          
C13      C      0.843306666667     0.485923333333     0.690633333333     0          
H8       H      0.807266666667     0.470443333333     0.694003333333     0          
C14      C      0.005456666667     0.554603333333     0.675013333333     0          
C15      C      0.037086666667     0.589273333333     0.736963333333     0          
H9       H      0.023026666667     0.600463333333     0.782083333333     0          
C16      C      0.089406666667     0.608223333333     0.734563333333     0          
H10      H      0.110776666667     0.632243333333     0.777863333333     0          
C17      C      0.110346666667     0.592353333333     0.669773333333     0          
C18      C      0.079206666667     0.558083333333     0.606773333333     0          
H11      H      0.093306666667     0.547073333333     0.561433333333     0          
C19      C      0.027116666667     0.539653333333     0.609693333333     0          
H12      H      0.005856666667     0.516163333333     0.565663333333     0          
C20      C      0.166486666667     0.611783333333     0.667943333333     0          
Zr1      Zr     0.681146666667     0.406093333333     0.238373333333     0          
O1       O      0.628376666667     0.391903333333     0.124643333333     0          
O2       O      0.574186666667     0.306423333333     0.122263333333     0          
O3       O      0.357036666667     0.549843333333     0.729153333333     0          
O4       O      0.404636666667     0.587793333333     0.606243333333     0          
O6       O      0.738766666667     0.391043333333     0.286163333333     0          
C1       C      0.591016666667     0.351503333333     0.094043333333     0          
C2       C      0.565276666667     0.357303333333     0.013253333333     0          
C3       C      0.565076666667     0.402103333333     0.996563333333     0          
H1       H      0.579616666667     0.429123333333     0.038493333333     0          
C4       C      0.543966666667     0.407743333333     0.919733333333     0          
H2       H      0.542856666667     0.438183333333     0.910463333333     0          
C5       C      0.524226666667     0.369893333333     0.855303333333     0          
C6       C      0.522886666667     0.324743333333     0.875433333333     0          
H3       H      0.508226666667     0.297473333333     0.833983333333     0          
C7       C      0.542306666667     0.318203333333     0.954133333333     0          
H4       H      0.539636666667     0.286273333333     0.967093333333     0          
C8       C      0.505906666667     0.377543333333     0.768623333333     0          
C9       C      0.482756666667     0.407263333333     0.761783333333     0          
H5       H      0.477096666667     0.421303333333     0.814023333333     0          
C10      C      0.467716666667     0.416803333333     0.679743333333     0          
C11      C      0.476626666667     0.396203333333     0.602983333333     0          
H6       H      0.466626666667     0.402323333333     0.546633333333     0          
C12      C      0.499916666667     0.366993333333     0.609083333333     0          
H7       H      0.506206666667     0.353473333333     0.556773333333     0          
C13      C      0.514076666667     0.357383333333     0.690633333333     0          
H8       H      0.529556666667     0.336823333333     0.694003333333     0          
C14      C      0.445396666667     0.450853333333     0.675013333333     0          
C15      C      0.410726666667     0.447813333333     0.736963333333     0          
H9       H      0.399536666667     0.422563333333     0.782083333333     0          
C16      C      0.391776666667     0.481183333333     0.734563333333     0          
H10      H      0.367756666667     0.478533333333     0.777863333333     0          
C17      C      0.407646666667     0.517993333333     0.669773333333     0          
C18      C      0.441916666667     0.521123333333     0.606773333333     0          
H11      H      0.452926666667     0.546233333333     0.561433333333     0          
C19      C      0.460346666667     0.487463333333     0.609693333333     0          
H12      H      0.483836666667     0.489693333333     0.565663333333     0          
C20      C      0.388216666667     0.554703333333     0.667943333333     0          
Zr1      Zr     0.406093333333     0.724946666667     0.761626666667     0          
O1       O      0.391903333333     0.763526666667     0.875356666667     0          
O2       O      0.306423333333     0.732236666667     0.877736666667     0          
O3       O      0.549843333333     0.192806666667     0.270846666667     0          
O4       O      0.587793333333     0.183156666667     0.393756666667     0          
O6       O      0.391043333333     0.652276666667     0.713836666667     0          
C1       C      0.351503333333     0.760486666667     0.905956666667     0          
C2       C      0.357303333333     0.792026666667     0.986746666667     0          
C3       C      0.402103333333     0.837026666667     0.003436666667     0          
H1       H      0.429123333333     0.849506666667     0.961506666667     0          
C4       C      0.407743333333     0.863776666667     0.080266666667     0          
H2       H      0.438183333333     0.895326666667     0.089536666667     0          
C5       C      0.369893333333     0.845666666667     0.144696666667     0          
C6       C      0.324743333333     0.801856666667     0.124566666667     0          
H3       H      0.297473333333     0.789246666667     0.166016666667     0          
C7       C      0.318203333333     0.775896666667     0.045866666667     0          
H4       H      0.286273333333     0.746636666667     0.032906666667     0          
C8       C      0.377543333333     0.871636666667     0.231376666667     0          
C9       C      0.407263333333     0.924506666667     0.238216666667     0          
H5       H      0.421303333333     0.944206666667     0.185976666667     0          
C10      C      0.416803333333     0.949086666667     0.320256666667     0          
C11      C      0.396203333333     0.919576666667     0.397016666667     0          
H6       H      0.402323333333     0.935696666667     0.453366666667     0          
C12      C      0.366993333333     0.867076666667     0.390916666667     0          
H7       H      0.353473333333     0.847266666667     0.443226666667     0          
C13      C      0.357383333333     0.843306666667     0.309366666667     0          
H8       H      0.336823333333     0.807266666667     0.305996666667     0          
C14      C      0.450853333333     0.005456666667     0.324986666667     0          
C15      C      0.447813333333     0.037086666667     0.263036666667     0          
H9       H      0.422563333333     0.023026666667     0.217916666667     0          
C16      C      0.481183333333     0.089406666667     0.265436666667     0          
H10      H      0.478533333333     0.110776666667     0.222136666667     0          
C17      C      0.517993333333     0.110346666667     0.330226666667     0          
C18      C      0.521123333333     0.079206666667     0.393226666667     0          
H11      H      0.546233333333     0.093306666667     0.438566666667     0          
C19      C      0.487463333333     0.027116666667     0.390306666667     0          
H12      H      0.489693333333     0.005856666667     0.434336666667     0          
C20      C      0.554703333333     0.166486666667     0.332056666667     0          
O5       O      0.333333333333     0.666666666667     0.807876666667     0          
Zr1      Zr     0.275053333333     0.681146666667     0.761626666667     0          
O1       O      0.236473333333     0.628376666667     0.875356666667     0          
O2       O      0.267763333333     0.574186666667     0.877736666667     0          
O3       O      0.807193333333     0.357036666667     0.270846666667     0          
O4       O      0.816843333333     0.404636666667     0.393756666667     0          
O6       O      0.347723333333     0.738766666667     0.713836666667     0          
C1       C      0.239513333333     0.591016666667     0.905956666667     0          
C2       C      0.207973333333     0.565276666667     0.986746666667     0          
C3       C      0.162973333333     0.565076666667     0.003436666667     0          
H1       H      0.150493333333     0.579616666667     0.961506666667     0          
C4       C      0.136223333333     0.543966666667     0.080266666667     0          
H2       H      0.104673333333     0.542856666667     0.089536666667     0          
C5       C      0.154333333333     0.524226666667     0.144696666667     0          
C6       C      0.198143333333     0.522886666667     0.124566666667     0          
H3       H      0.210753333333     0.508226666667     0.166016666667     0          
C7       C      0.224103333333     0.542306666667     0.045866666667     0          
H4       H      0.253363333333     0.539636666667     0.032906666667     0          
C8       C      0.128363333333     0.505906666667     0.231376666667     0          
C9       C      0.075493333333     0.482756666667     0.238216666667     0          
H5       H      0.055793333333     0.477096666667     0.185976666667     0          
C10      C      0.050913333333     0.467716666667     0.320256666667     0          
C11      C      0.080423333333     0.476626666667     0.397016666667     0          
H6       H      0.064303333333     0.466626666667     0.453366666667     0          
C12      C      0.132923333333     0.499916666667     0.390916666667     0          
H7       H      0.152733333333     0.506206666667     0.443226666667     0          
C13      C      0.156693333333     0.514076666667     0.309366666667     0          
H8       H      0.192733333333     0.529556666667     0.305996666667     0          
C14      C      0.994543333333     0.445396666667     0.324986666667     0          
C15      C      0.962913333333     0.410726666667     0.263036666667     0          
H9       H      0.976973333333     0.399536666667     0.217916666667     0          
C16      C      0.910593333333     0.391776666667     0.265436666667     0          
H10      H      0.889223333333     0.367756666667     0.222136666667     0          
C17      C      0.889653333333     0.407646666667     0.330226666667     0          
C18      C      0.920793333333     0.441916666667     0.393226666667     0          
H11      H      0.906693333333     0.452926666667     0.438566666667     0          
C19      C      0.972883333333     0.460346666667     0.390306666667     0          
H12      H      0.994143333333     0.483836666667     0.434336666667     0          
C20      C      0.833513333333     0.388216666667     0.332056666667     0          
Zr1      Zr     0.318853333333     0.593906666667     0.761626666667     0          
O1       O      0.371623333333     0.608096666667     0.875356666667     0          
O2       O      0.425813333333     0.693576666667     0.877736666667     0          
O3       O      0.642963333333     0.450156666667     0.270846666667     0          
O4       O      0.595363333333     0.412206666667     0.393756666667     0          
O6       O      0.261233333333     0.608956666667     0.713836666667     0          
C1       C      0.408983333333     0.648496666667     0.905956666667     0          
C2       C      0.434723333333     0.642696666667     0.986746666667     0          
C3       C      0.434923333333     0.597896666667     0.003436666667     0          
H1       H      0.420383333333     0.570876666667     0.961506666667     0          
C4       C      0.456033333333     0.592256666667     0.080266666667     0          
H2       H      0.457143333333     0.561816666667     0.089536666667     0          
C5       C      0.475773333333     0.630106666667     0.144696666667     0          
C6       C      0.477113333333     0.675256666667     0.124566666667     0          
H3       H      0.491773333333     0.702526666667     0.166016666667     0          
C7       C      0.457693333333     0.681796666667     0.045866666667     0          
H4       H      0.460363333333     0.713726666667     0.032906666667     0          
C8       C      0.494093333333     0.622456666667     0.231376666667     0          
C9       C      0.517243333333     0.592736666667     0.238216666667     0          
H5       H      0.522903333333     0.578696666667     0.185976666667     0          
C10      C      0.532283333333     0.583196666667     0.320256666667     0          
C11      C      0.523373333333     0.603796666667     0.397016666667     0          
H6       H      0.533373333333     0.597676666667     0.453366666667     0          
C12      C      0.500083333333     0.633006666667     0.390916666667     0          
H7       H      0.493793333333     0.646526666667     0.443226666667     0          
C13      C      0.485923333333     0.642616666667     0.309366666667     0          
H8       H      0.470443333333     0.663176666667     0.305996666667     0          
C14      C      0.554603333333     0.549146666667     0.324986666667     0          
C15      C      0.589273333333     0.552186666667     0.263036666667     0          
H9       H      0.600463333333     0.577436666667     0.217916666667     0          
C16      C      0.608223333333     0.518816666667     0.265436666667     0          
H10      H      0.632243333333     0.521466666667     0.222136666667     0          
C17      C      0.592353333333     0.482006666667     0.330226666667     0          
C18      C      0.558083333333     0.478876666667     0.393226666667     0          
H11      H      0.547073333333     0.453766666667     0.438566666667     0          
C19      C      0.539653333333     0.512536666667     0.390306666667     0          
H12      H      0.516163333333     0.510306666667     0.434336666667     0          
C20      C      0.611783333333     0.445296666667     0.332056666667     0          
Zr1      Zr     0.260573333333     0.608386666667     0.571706666667     0          
O1       O      0.274763333333     0.569806666667     0.457976666667     0          
O2       O      0.360243333333     0.601096666667     0.455596666667     0          
O3       O      0.116823333333     0.140526666667     0.062486666667     0          
O4       O      0.078873333333     0.150176666667     0.939576666667     0          
O6       O      0.275623333333     0.681056666667     0.619496666667     0          
C1       C      0.315163333333     0.572846666667     0.427376666667     0          
C2       C      0.309363333333     0.541306666667     0.346586666667     0          
C3       C      0.264563333333     0.496306666667     0.329896666667     0          
H1       H      0.237543333333     0.483826666667     0.371826666667     0          
C4       C      0.258923333333     0.469556666667     0.253066666667     0          
H2       H      0.228483333333     0.438006666667     0.243796666667     0          
C5       C      0.296773333333     0.487666666667     0.188636666667     0          
C6       C      0.341923333333     0.531476666667     0.208766666667     0          
H3       H      0.369193333333     0.544086666667     0.167316666667     0          
C7       C      0.348463333333     0.557436666667     0.287466666667     0          
H4       H      0.380393333333     0.586696666667     0.300426666667     0          
C8       C      0.289123333333     0.461696666667     0.101956666667     0          
C9       C      0.259403333333     0.408826666667     0.095116666667     0          
H5       H      0.245363333333     0.389126666667     0.147356666667     0          
C10      C      0.249863333333     0.384246666667     0.013076666667     0          
C11      C      0.270463333333     0.413756666667     0.936316666667     0          
H6       H      0.264343333333     0.397636666667     0.879966666667     0          
C12      C      0.299673333333     0.466256666667     0.942416666667     0          
H7       H      0.313193333333     0.486066666667     0.890106666667     0          
C13      C      0.309283333333     0.490026666667     0.023966666667     0          
H8       H      0.329843333333     0.526066666667     0.027336666667     0          
C14      C      0.215813333333     0.327876666667     0.008346666667     0          
C15      C      0.218853333333     0.296246666667     0.070296666667     0          
H9       H      0.244103333333     0.310306666667     0.115416666667     0          
C16      C      0.185483333333     0.243926666667     0.067896666667     0          
H10      H      0.188133333333     0.222556666667     0.111196666667     0          
C17      C      0.148673333333     0.222986666667     0.003106666667     0          
C18      C      0.145543333333     0.254126666667     0.940106666667     0          
H11      H      0.120433333333     0.240026666667     0.894766666667     0          
C19      C      0.179203333333     0.306216666667     0.943026666667     0          
H12      H      0.176973333333     0.327476666667     0.898996666667     0          
C20      C      0.111963333333     0.166846666667     0.001276666667     0          
O5       O      0.333333333333     0.666666666667     0.525456666667     0          
Zr1      Zr     0.391613333333     0.652186666667     0.571706666667     0          
O1       O      0.430193333333     0.704956666667     0.457976666667     0          
O2       O      0.398903333333     0.759146666667     0.455596666667     0          
O3       O      0.859473333333     0.976296666667     0.062486666667     0          
O4       O      0.849823333333     0.928696666667     0.939576666667     0          
O6       O      0.318943333333     0.594566666667     0.619496666667     0          
C1       C      0.427153333333     0.742316666667     0.427376666667     0          
C2       C      0.458693333333     0.768056666667     0.346586666667     0          
C3       C      0.503693333333     0.768256666667     0.329896666667     0          
H1       H      0.516173333333     0.753716666667     0.371826666667     0          
C4       C      0.530443333333     0.789366666667     0.253066666667     0          
H2       H      0.561993333333     0.790476666667     0.243796666667     0          
C5       C      0.512333333333     0.809106666667     0.188636666667     0          
C6       C      0.468523333333     0.810446666667     0.208766666667     0          
H3       H      0.455913333333     0.825106666667     0.167316666667     0          
C7       C      0.442563333333     0.791026666667     0.287466666667     0          
H4       H      0.413303333333     0.793696666667     0.300426666667     0          
C8       C      0.538303333333     0.827426666667     0.101956666667     0          
C9       C      0.591173333333     0.850576666667     0.095116666667     0          
H5       H      0.610873333333     0.856236666667     0.147356666667     0          
C10      C      0.615753333333     0.865616666667     0.013076666667     0          
C11      C      0.586243333333     0.856706666667     0.936316666667     0          
H6       H      0.602363333333     0.866706666667     0.879966666667     0          
C12      C      0.533743333333     0.833416666667     0.942416666667     0          
H7       H      0.513933333333     0.827126666667     0.890106666667     0          
C13      C      0.509973333333     0.819256666667     0.023966666667     0          
H8       H      0.473933333333     0.803776666667     0.027336666667     0          
C14      C      0.672123333333     0.887936666667     0.008346666667     0          
C15      C      0.703753333333     0.922606666667     0.070296666667     0          
H9       H      0.689693333333     0.933796666667     0.115416666667     0          
C16      C      0.756073333333     0.941556666667     0.067896666667     0          
H10      H      0.777443333333     0.965576666667     0.111196666667     0          
C17      C      0.777013333333     0.925686666667     0.003106666667     0          
C18      C      0.745873333333     0.891416666667     0.940106666667     0          
H11      H      0.759973333333     0.880406666667     0.894766666667     0          
C19      C      0.693783333333     0.872986666667     0.943026666667     0          
H12      H      0.672523333333     0.849496666667     0.898996666667     0          
C20      C      0.833153333333     0.945116666667     0.001276666667     0          
Zr1      Zr     0.347813333333     0.739426666667     0.571706666667     0          
O1       O      0.295043333333     0.725236666667     0.457976666667     0          
O2       O      0.240853333333     0.639756666667     0.455596666667     0          
O3       O      0.023703333333     0.883176666667     0.062486666667     0          
O4       O      0.071303333333     0.921126666667     0.939576666667     0          
O6       O      0.405433333333     0.724376666667     0.619496666667     0          
C1       C      0.257683333333     0.684836666667     0.427376666667     0          
C2       C      0.231943333333     0.690636666667     0.346586666667     0          
C3       C      0.231743333333     0.735436666667     0.329896666667     0          
H1       H      0.246283333333     0.762456666667     0.371826666667     0          
C4       C      0.210633333333     0.741076666667     0.253066666667     0          
H2       H      0.209523333333     0.771516666667     0.243796666667     0          
C5       C      0.190893333333     0.703226666667     0.188636666667     0          
C6       C      0.189553333333     0.658076666667     0.208766666667     0          
H3       H      0.174893333333     0.630806666667     0.167316666667     0          
C7       C      0.208973333333     0.651536666667     0.287466666667     0          
H4       H      0.206303333333     0.619606666667     0.300426666667     0          
C8       C      0.172573333333     0.710876666667     0.101956666667     0          
C9       C      0.149423333333     0.740596666667     0.095116666667     0          
H5       H      0.143763333333     0.754636666667     0.147356666667     0          
C10      C      0.134383333333     0.750136666667     0.013076666667     0          
C11      C      0.143293333333     0.729536666667     0.936316666667     0          
H6       H      0.133293333333     0.735656666667     0.879966666667     0          
C12      C      0.166583333333     0.700326666667     0.942416666667     0          
H7       H      0.172873333333     0.686806666667     0.890106666667     0          
C13      C      0.180743333333     0.690716666667     0.023966666667     0          
H8       H      0.196223333333     0.670156666667     0.027336666667     0          
C14      C      0.112063333333     0.784186666667     0.008346666667     0          
C15      C      0.077393333333     0.781146666667     0.070296666667     0          
H9       H      0.066203333333     0.755896666667     0.115416666667     0          
C16      C      0.058443333333     0.814516666667     0.067896666667     0          
H10      H      0.034423333333     0.811866666667     0.111196666667     0          
C17      C      0.074313333333     0.851326666667     0.003106666667     0          
C18      C      0.108583333333     0.854456666667     0.940106666667     0          
H11      H      0.119593333333     0.879566666667     0.894766666667     0          
C19      C      0.127013333333     0.820796666667     0.943026666667     0          
H12      H      0.150503333333     0.823026666667     0.898996666667     0          
C20      C      0.054883333333     0.888036666667     0.001276666667     0          


