data_BIKMEQ01

_audit_creation_method RASPA-1.0
_audit_creation_date 2020-4-3
_audit_author_name 'Rocio Bueno-Perez'

_cell_length_a    30.6549
_cell_length_b    30.6549
_cell_length_c    15.0473
_cell_angle_alpha 90
_cell_angle_beta  90
_cell_angle_gamma 120
_cell_volume      12245.9

_symmetry_cell_setting          trigonal
_symmetry_space_group_name_Hall 'P 1'
_symmetry_space_group_name_H-M  'P 1'
_symmetry_Int_Tables_number     1

_symmetry_equiv_pos_as_xyz 'x,y,z'

loop_
_atom_site_label
_atom_site_type_symbol
_atom_site_fract_x
_atom_site_fract_y
_atom_site_fract_z
_atom_site_charge
Zr1      Zr     0.071940000000     0.057470000000     0.094830000000     0          
O1       O      0.058730000000     0.094960000000     0.209520000000     0          
O2       O      0.974540000000     0.065880000000     0.211530000000     0          
O3       O      0.217920000000     0.527260000000     0.602860000000     0          
O4       O      0.255770000000     0.517890000000     0.727200000000     0          
O6       O      0.057030000000     0.985680000000     0.046800000000     0          
C1       C      0.019280000000     0.092930000000     0.240000000000     0          
C2       C      0.026430000000     0.125070000000     0.319700000000     0          
C3       C      0.072260000000     0.168070000000     0.335100000000     0          
H1       H      0.098200000000     0.178200000000     0.294100000000     0          
C4       C      0.079650000000     0.196190000000     0.411500000000     0          
H2       H      0.110100000000     0.225800000000     0.419800000000     0          
C5       C      0.042590000000     0.181070000000     0.475600000000     0          
C6       C      0.997100000000     0.138900000000     0.457400000000     0          
H3       H      0.971100000000     0.128300000000     0.498600000000     0          
C7       C      0.988600000000     0.111600000000     0.379000000000     0          
H4       H      0.956900000000     0.084200000000     0.367500000000     0          
C8       C      0.052170000000     0.207880000000     0.562100000000     0          
C9       C      0.082470000000     0.259890000000     0.566600000000     0          
H5       H      0.095700000000     0.278200000000     0.514500000000     0          
C10      C      0.093400000000     0.285200000000     0.647400000000     0          
C11      C      0.073300000000     0.257720000000     0.724700000000     0          
H6       H      0.080300000000     0.274200000000     0.779200000000     0          
C12      C      0.042800000000     0.205710000000     0.721000000000     0          
H7       H      0.029300000000     0.187300000000     0.772900000000     0          
C13      C      0.032730000000     0.181500000000     0.640000000000     0          
H8       H      0.012400000000     0.146700000000     0.637800000000     0          
C14      C      0.127200000000     0.341190000000     0.650100000000     0          
C15      C      0.123900000000     0.371980000000     0.587800000000     0          
H9       H      0.100300000000     0.357900000000     0.542400000000     0          
C16      C      0.155200000000     0.423980000000     0.591200000000     0          
H10      H      0.152400000000     0.444200000000     0.548200000000     0          
C17      C      0.190410000000     0.445590000000     0.658200000000     0          
C18      C      0.194600000000     0.414960000000     0.719900000000     0          
H11      H      0.218500000000     0.429100000000     0.764800000000     0          
C19      C      0.163500000000     0.363220000000     0.715700000000     0          
H12      H      0.167100000000     0.342900000000     0.757700000000     0          
C20      C      0.224160000000     0.501340000000     0.662800000000     0          
O5       O      0.000000000000     0.000000000000     0.140800000000     0          
Zr1      Zr     0.942530000000     0.014470000000     0.094830000000     0          
O1       O      0.905040000000     0.963770000000     0.209520000000     0          
O2       O      0.934120000000     0.908660000000     0.211530000000     0          
O3       O      0.472740000000     0.690660000000     0.602860000000     0          
O4       O      0.482110000000     0.737880000000     0.727200000000     0          
O6       O      0.014320000000     0.071350000000     0.046800000000     0          
C1       C      0.907070000000     0.926350000000     0.240000000000     0          
C2       C      0.874930000000     0.901360000000     0.319700000000     0          
C3       C      0.831930000000     0.904190000000     0.335100000000     0          
H1       H      0.821800000000     0.920000000000     0.294100000000     0          
C4       C      0.803810000000     0.883460000000     0.411500000000     0          
H2       H      0.774200000000     0.884300000000     0.419800000000     0          
C5       C      0.818930000000     0.861520000000     0.475600000000     0          
C6       C      0.861100000000     0.858200000000     0.457400000000     0          
H3       H      0.871700000000     0.842800000000     0.498600000000     0          
C7       C      0.888400000000     0.877000000000     0.379000000000     0          
H4       H      0.915800000000     0.872700000000     0.367500000000     0          
C8       C      0.792120000000     0.844290000000     0.562100000000     0          
C9       C      0.740110000000     0.822580000000     0.566600000000     0          
H5       H      0.721800000000     0.817500000000     0.514500000000     0          
C10      C      0.714800000000     0.808200000000     0.647400000000     0          
C11      C      0.742280000000     0.815580000000     0.724700000000     0          
H6       H      0.725800000000     0.806100000000     0.779200000000     0          
C12      C      0.794290000000     0.837090000000     0.721000000000     0          
H7       H      0.812700000000     0.842000000000     0.772900000000     0          
C13      C      0.818500000000     0.851230000000     0.640000000000     0          
H8       H      0.853300000000     0.865700000000     0.637800000000     0          
C14      C      0.658810000000     0.786010000000     0.650100000000     0          
C15      C      0.628020000000     0.751920000000     0.587800000000     0          
H9       H      0.642100000000     0.742400000000     0.542400000000     0          
C16      C      0.576020000000     0.731220000000     0.591200000000     0          
H10      H      0.555800000000     0.708200000000     0.548200000000     0          
C17      C      0.554410000000     0.744820000000     0.658200000000     0          
C18      C      0.585040000000     0.779640000000     0.719900000000     0          
H11      H      0.570900000000     0.789400000000     0.764800000000     0          
C19      C      0.636780000000     0.800280000000     0.715700000000     0          
H12      H      0.657100000000     0.824200000000     0.757700000000     0          
C20      C      0.498660000000     0.722820000000     0.662800000000     0          
Zr1      Zr     0.985530000000     0.928060000000     0.094830000000     0          
O1       O      0.036230000000     0.941270000000     0.209520000000     0          
O2       O      0.091340000000     0.025460000000     0.211530000000     0          
O3       O      0.309340000000     0.782080000000     0.602860000000     0          
O4       O      0.262120000000     0.744230000000     0.727200000000     0          
O6       O      0.928650000000     0.942970000000     0.046800000000     0          
C1       C      0.073650000000     0.980720000000     0.240000000000     0          
C2       C      0.098640000000     0.973570000000     0.319700000000     0          
C3       C      0.095810000000     0.927740000000     0.335100000000     0          
H1       H      0.080000000000     0.901800000000     0.294100000000     0          
C4       C      0.116540000000     0.920350000000     0.411500000000     0          
H2       H      0.115700000000     0.889900000000     0.419800000000     0          
C5       C      0.138480000000     0.957410000000     0.475600000000     0          
C6       C      0.141800000000     0.002900000000     0.457400000000     0          
H3       H      0.157200000000     0.028900000000     0.498600000000     0          
C7       C      0.123000000000     0.011400000000     0.379000000000     0          
H4       H      0.127300000000     0.043100000000     0.367500000000     0          
C8       C      0.155710000000     0.947830000000     0.562100000000     0          
C9       C      0.177420000000     0.917530000000     0.566600000000     0          
H5       H      0.182500000000     0.904300000000     0.514500000000     0          
C10      C      0.191800000000     0.906600000000     0.647400000000     0          
C11      C      0.184420000000     0.926700000000     0.724700000000     0          
H6       H      0.193900000000     0.919700000000     0.779200000000     0          
C12      C      0.162910000000     0.957200000000     0.721000000000     0          
H7       H      0.158000000000     0.970700000000     0.772900000000     0          
C13      C      0.148770000000     0.967270000000     0.640000000000     0          
H8       H      0.134300000000     0.987600000000     0.637800000000     0          
C14      C      0.213990000000     0.872800000000     0.650100000000     0          
C15      C      0.248080000000     0.876100000000     0.587800000000     0          
H9       H      0.257600000000     0.899700000000     0.542400000000     0          
C16      C      0.268780000000     0.844800000000     0.591200000000     0          
H10      H      0.291800000000     0.847600000000     0.548200000000     0          
C17      C      0.255180000000     0.809590000000     0.658200000000     0          
C18      C      0.220360000000     0.805400000000     0.719900000000     0          
H11      H      0.210600000000     0.781500000000     0.764800000000     0          
C19      C      0.199720000000     0.836500000000     0.715700000000     0          
H12      H      0.175800000000     0.832900000000     0.757700000000     0          
C20      C      0.277180000000     0.775840000000     0.662800000000     0          
Zr1      Zr     0.928060000000     0.942530000000     0.905170000000     0          
O1       O      0.941270000000     0.905040000000     0.790480000000     0          
O2       O      0.025460000000     0.934120000000     0.788470000000     0          
O3       O      0.782080000000     0.472740000000     0.397140000000     0          
O4       O      0.744230000000     0.482110000000     0.272800000000     0          
O6       O      0.942970000000     0.014320000000     0.953200000000     0          
C1       C      0.980720000000     0.907070000000     0.760000000000     0          
C2       C      0.973570000000     0.874930000000     0.680300000000     0          
C3       C      0.927740000000     0.831930000000     0.664900000000     0          
H1       H      0.901800000000     0.821800000000     0.705900000000     0          
C4       C      0.920350000000     0.803810000000     0.588500000000     0          
H2       H      0.889900000000     0.774200000000     0.580200000000     0          
C5       C      0.957410000000     0.818930000000     0.524400000000     0          
C6       C      0.002900000000     0.861100000000     0.542600000000     0          
H3       H      0.028900000000     0.871700000000     0.501400000000     0          
C7       C      0.011400000000     0.888400000000     0.621000000000     0          
H4       H      0.043100000000     0.915800000000     0.632500000000     0          
C8       C      0.947830000000     0.792120000000     0.437900000000     0          
C9       C      0.917530000000     0.740110000000     0.433400000000     0          
H5       H      0.904300000000     0.721800000000     0.485500000000     0          
C10      C      0.906600000000     0.714800000000     0.352600000000     0          
C11      C      0.926700000000     0.742280000000     0.275300000000     0          
H6       H      0.919700000000     0.725800000000     0.220800000000     0          
C12      C      0.957200000000     0.794290000000     0.279000000000     0          
H7       H      0.970700000000     0.812700000000     0.227100000000     0          
C13      C      0.967270000000     0.818500000000     0.360000000000     0          
H8       H      0.987600000000     0.853300000000     0.362200000000     0          
C14      C      0.872800000000     0.658810000000     0.349900000000     0          
C15      C      0.876100000000     0.628020000000     0.412200000000     0          
H9       H      0.899700000000     0.642100000000     0.457600000000     0          
C16      C      0.844800000000     0.576020000000     0.408800000000     0          
H10      H      0.847600000000     0.555800000000     0.451800000000     0          
C17      C      0.809590000000     0.554410000000     0.341800000000     0          
C18      C      0.805400000000     0.585040000000     0.280100000000     0          
H11      H      0.781500000000     0.570900000000     0.235200000000     0          
C19      C      0.836500000000     0.636780000000     0.284300000000     0          
H12      H      0.832900000000     0.657100000000     0.242300000000     0          
C20      C      0.775840000000     0.498660000000     0.337200000000     0          
O5       O      0.000000000000     0.000000000000     0.859200000000     0          
Zr1      Zr     0.057470000000     0.985530000000     0.905170000000     0          
O1       O      0.094960000000     0.036230000000     0.790480000000     0          
O2       O      0.065880000000     0.091340000000     0.788470000000     0          
O3       O      0.527260000000     0.309340000000     0.397140000000     0          
O4       O      0.517890000000     0.262120000000     0.272800000000     0          
O6       O      0.985680000000     0.928650000000     0.953200000000     0          
C1       C      0.092930000000     0.073650000000     0.760000000000     0          
C2       C      0.125070000000     0.098640000000     0.680300000000     0          
C3       C      0.168070000000     0.095810000000     0.664900000000     0          
H1       H      0.178200000000     0.080000000000     0.705900000000     0          
C4       C      0.196190000000     0.116540000000     0.588500000000     0          
H2       H      0.225800000000     0.115700000000     0.580200000000     0          
C5       C      0.181070000000     0.138480000000     0.524400000000     0          
C6       C      0.138900000000     0.141800000000     0.542600000000     0          
H3       H      0.128300000000     0.157200000000     0.501400000000     0          
C7       C      0.111600000000     0.123000000000     0.621000000000     0          
H4       H      0.084200000000     0.127300000000     0.632500000000     0          
C8       C      0.207880000000     0.155710000000     0.437900000000     0          
C9       C      0.259890000000     0.177420000000     0.433400000000     0          
H5       H      0.278200000000     0.182500000000     0.485500000000     0          
C10      C      0.285200000000     0.191800000000     0.352600000000     0          
C11      C      0.257720000000     0.184420000000     0.275300000000     0          
H6       H      0.274200000000     0.193900000000     0.220800000000     0          
C12      C      0.205710000000     0.162910000000     0.279000000000     0          
H7       H      0.187300000000     0.158000000000     0.227100000000     0          
C13      C      0.181500000000     0.148770000000     0.360000000000     0          
H8       H      0.146700000000     0.134300000000     0.362200000000     0          
C14      C      0.341190000000     0.213990000000     0.349900000000     0          
C15      C      0.371980000000     0.248080000000     0.412200000000     0          
H9       H      0.357900000000     0.257600000000     0.457600000000     0          
C16      C      0.423980000000     0.268780000000     0.408800000000     0          
H10      H      0.444200000000     0.291800000000     0.451800000000     0          
C17      C      0.445590000000     0.255180000000     0.341800000000     0          
C18      C      0.414960000000     0.220360000000     0.280100000000     0          
H11      H      0.429100000000     0.210600000000     0.235200000000     0          
C19      C      0.363220000000     0.199720000000     0.284300000000     0          
H12      H      0.342900000000     0.175800000000     0.242300000000     0          
C20      C      0.501340000000     0.277180000000     0.337200000000     0          
Zr1      Zr     0.014470000000     0.071940000000     0.905170000000     0          
O1       O      0.963770000000     0.058730000000     0.790480000000     0          
O2       O      0.908660000000     0.974540000000     0.788470000000     0          
O3       O      0.690660000000     0.217920000000     0.397140000000     0          
O4       O      0.737880000000     0.255770000000     0.272800000000     0          
O6       O      0.071350000000     0.057030000000     0.953200000000     0          
C1       C      0.926350000000     0.019280000000     0.760000000000     0          
C2       C      0.901360000000     0.026430000000     0.680300000000     0          
C3       C      0.904190000000     0.072260000000     0.664900000000     0          
H1       H      0.920000000000     0.098200000000     0.705900000000     0          
C4       C      0.883460000000     0.079650000000     0.588500000000     0          
H2       H      0.884300000000     0.110100000000     0.580200000000     0          
C5       C      0.861520000000     0.042590000000     0.524400000000     0          
C6       C      0.858200000000     0.997100000000     0.542600000000     0          
H3       H      0.842800000000     0.971100000000     0.501400000000     0          
C7       C      0.877000000000     0.988600000000     0.621000000000     0          
H4       H      0.872700000000     0.956900000000     0.632500000000     0          
C8       C      0.844290000000     0.052170000000     0.437900000000     0          
C9       C      0.822580000000     0.082470000000     0.433400000000     0          
H5       H      0.817500000000     0.095700000000     0.485500000000     0          
C10      C      0.808200000000     0.093400000000     0.352600000000     0          
C11      C      0.815580000000     0.073300000000     0.275300000000     0          
H6       H      0.806100000000     0.080300000000     0.220800000000     0          
C12      C      0.837090000000     0.042800000000     0.279000000000     0          
H7       H      0.842000000000     0.029300000000     0.227100000000     0          
C13      C      0.851230000000     0.032730000000     0.360000000000     0          
H8       H      0.865700000000     0.012400000000     0.362200000000     0          
C14      C      0.786010000000     0.127200000000     0.349900000000     0          
C15      C      0.751920000000     0.123900000000     0.412200000000     0          
H9       H      0.742400000000     0.100300000000     0.457600000000     0          
C16      C      0.731220000000     0.155200000000     0.408800000000     0          
H10      H      0.708200000000     0.152400000000     0.451800000000     0          
C17      C      0.744820000000     0.190410000000     0.341800000000     0          
C18      C      0.779640000000     0.194600000000     0.280100000000     0          
H11      H      0.789400000000     0.218500000000     0.235200000000     0          
C19      C      0.800280000000     0.163500000000     0.284300000000     0          
H12      H      0.824200000000     0.167100000000     0.242300000000     0          
C20      C      0.722820000000     0.224160000000     0.337200000000     0          
Zr1      Zr     0.738606666667     0.390803333333     0.428163333333     0          
O1       O      0.725396666667     0.428293333333     0.542853333333     0          
O2       O      0.641206666667     0.399213333333     0.544863333333     0          
O3       O      0.884586666667     0.860593333333     0.936193333333     0          
O4       O      0.922436666667     0.851223333333     0.060533333333     0          
O6       O      0.723696666667     0.319013333333     0.380133333333     0          
C1       C      0.685946666667     0.426263333333     0.573333333333     0          
C2       C      0.693096666667     0.458403333333     0.653033333333     0          
C3       C      0.738926666667     0.501403333333     0.668433333333     0          
H1       H      0.764866666667     0.511533333333     0.627433333333     0          
C4       C      0.746316666667     0.529523333333     0.744833333333     0          
H2       H      0.776766666667     0.559133333333     0.753133333333     0          
C5       C      0.709256666667     0.514403333333     0.808933333333     0          
C6       C      0.663766666667     0.472233333333     0.790733333333     0          
H3       H      0.637766666667     0.461633333333     0.831933333333     0          
C7       C      0.655266666667     0.444933333333     0.712333333333     0          
H4       H      0.623566666667     0.417533333333     0.700833333333     0          
C8       C      0.718836666667     0.541213333333     0.895433333333     0          
C9       C      0.749136666667     0.593223333333     0.899933333333     0          
H5       H      0.762366666667     0.611533333333     0.847833333333     0          
C10      C      0.760066666667     0.618533333333     0.980733333333     0          
C11      C      0.739966666667     0.591053333333     0.058033333333     0          
H6       H      0.746966666667     0.607533333333     0.112533333333     0          
C12      C      0.709466666667     0.539043333333     0.054333333333     0          
H7       H      0.695966666667     0.520633333333     0.106233333333     0          
C13      C      0.699396666667     0.514833333333     0.973333333333     0          
H8       H      0.679066666667     0.480033333333     0.971133333333     0          
C14      C      0.793866666667     0.674523333333     0.983433333333     0          
C15      C      0.790566666667     0.705313333333     0.921133333333     0          
H9       H      0.766966666667     0.691233333333     0.875733333333     0          
C16      C      0.821866666667     0.757313333333     0.924533333333     0          
H10      H      0.819066666667     0.777533333333     0.881533333333     0          
C17      C      0.857076666667     0.778923333333     0.991533333333     0          
C18      C      0.861266666667     0.748293333333     0.053233333333     0          
H11      H      0.885166666667     0.762433333333     0.098133333333     0          
C19      C      0.830166666667     0.696553333333     0.049033333333     0          
H12      H      0.833766666667     0.676233333333     0.091033333333     0          
C20      C      0.890826666667     0.834673333333     0.996133333333     0          
O5       O      0.666666666667     0.333333333333     0.474133333333     0          
Zr1      Zr     0.609196666667     0.347803333333     0.428163333333     0          
O1       O      0.571706666667     0.297103333333     0.542853333333     0          
O2       O      0.600786666667     0.241993333333     0.544863333333     0          
O3       O      0.139406666667     0.023993333333     0.936193333333     0          
O4       O      0.148776666667     0.071213333333     0.060533333333     0          
O6       O      0.680986666667     0.404683333333     0.380133333333     0          
C1       C      0.573736666667     0.259683333333     0.573333333333     0          
C2       C      0.541596666667     0.234693333333     0.653033333333     0          
C3       C      0.498596666667     0.237523333333     0.668433333333     0          
H1       H      0.488466666667     0.253333333333     0.627433333333     0          
C4       C      0.470476666667     0.216793333333     0.744833333333     0          
H2       H      0.440866666667     0.217633333333     0.753133333333     0          
C5       C      0.485596666667     0.194853333333     0.808933333333     0          
C6       C      0.527766666667     0.191533333333     0.790733333333     0          
H3       H      0.538366666667     0.176133333333     0.831933333333     0          
C7       C      0.555066666667     0.210333333333     0.712333333333     0          
H4       H      0.582466666667     0.206033333333     0.700833333333     0          
C8       C      0.458786666667     0.177623333333     0.895433333333     0          
C9       C      0.406776666667     0.155913333333     0.899933333333     0          
H5       H      0.388466666667     0.150833333333     0.847833333333     0          
C10      C      0.381466666667     0.141533333333     0.980733333333     0          
C11      C      0.408946666667     0.148913333333     0.058033333333     0          
H6       H      0.392466666667     0.139433333333     0.112533333333     0          
C12      C      0.460956666667     0.170423333333     0.054333333333     0          
H7       H      0.479366666667     0.175333333333     0.106233333333     0          
C13      C      0.485166666667     0.184563333333     0.973333333333     0          
H8       H      0.519966666667     0.199033333333     0.971133333333     0          
C14      C      0.325476666667     0.119343333333     0.983433333333     0          
C15      C      0.294686666667     0.085253333333     0.921133333333     0          
H9       H      0.308766666667     0.075733333333     0.875733333333     0          
C16      C      0.242686666667     0.064553333333     0.924533333333     0          
H10      H      0.222466666667     0.041533333333     0.881533333333     0          
C17      C      0.221076666667     0.078153333333     0.991533333333     0          
C18      C      0.251706666667     0.112973333333     0.053233333333     0          
H11      H      0.237566666667     0.122733333333     0.098133333333     0          
C19      C      0.303446666667     0.133613333333     0.049033333333     0          
H12      H      0.323766666667     0.157533333333     0.091033333333     0          
C20      C      0.165326666667     0.056153333333     0.996133333333     0          
Zr1      Zr     0.652196666667     0.261393333333     0.428163333333     0          
O1       O      0.702896666667     0.274603333333     0.542853333333     0          
O2       O      0.758006666667     0.358793333333     0.544863333333     0          
O3       O      0.976006666667     0.115413333333     0.936193333333     0          
O4       O      0.928786666667     0.077563333333     0.060533333333     0          
O6       O      0.595316666667     0.276303333333     0.380133333333     0          
C1       C      0.740316666667     0.314053333333     0.573333333333     0          
C2       C      0.765306666667     0.306903333333     0.653033333333     0          
C3       C      0.762476666667     0.261073333333     0.668433333333     0          
H1       H      0.746666666667     0.235133333333     0.627433333333     0          
C4       C      0.783206666667     0.253683333333     0.744833333333     0          
H2       H      0.782366666667     0.223233333333     0.753133333333     0          
C5       C      0.805146666667     0.290743333333     0.808933333333     0          
C6       C      0.808466666667     0.336233333333     0.790733333333     0          
H3       H      0.823866666667     0.362233333333     0.831933333333     0          
C7       C      0.789666666667     0.344733333333     0.712333333333     0          
H4       H      0.793966666667     0.376433333333     0.700833333333     0          
C8       C      0.822376666667     0.281163333333     0.895433333333     0          
C9       C      0.844086666667     0.250863333333     0.899933333333     0          
H5       H      0.849166666667     0.237633333333     0.847833333333     0          
C10      C      0.858466666667     0.239933333333     0.980733333333     0          
C11      C      0.851086666667     0.260033333333     0.058033333333     0          
H6       H      0.860566666667     0.253033333333     0.112533333333     0          
C12      C      0.829576666667     0.290533333333     0.054333333333     0          
H7       H      0.824666666667     0.304033333333     0.106233333333     0          
C13      C      0.815436666667     0.300603333333     0.973333333333     0          
H8       H      0.800966666667     0.320933333333     0.971133333333     0          
C14      C      0.880656666667     0.206133333333     0.983433333333     0          
C15      C      0.914746666667     0.209433333333     0.921133333333     0          
H9       H      0.924266666667     0.233033333333     0.875733333333     0          
C16      C      0.935446666667     0.178133333333     0.924533333333     0          
H10      H      0.958466666667     0.180933333333     0.881533333333     0          
C17      C      0.921846666667     0.142923333333     0.991533333333     0          
C18      C      0.887026666667     0.138733333333     0.053233333333     0          
H11      H      0.877266666667     0.114833333333     0.098133333333     0          
C19      C      0.866386666667     0.169833333333     0.049033333333     0          
H12      H      0.842466666667     0.166233333333     0.091033333333     0          
C20      C      0.943846666667     0.109173333333     0.996133333333     0          
Zr1      Zr     0.594726666667     0.275863333333     0.238503333333     0          
O1       O      0.607936666667     0.238373333333     0.123813333333     0          
O2       O      0.692126666667     0.267453333333     0.121803333333     0          
O3       O      0.448746666667     0.806073333333     0.730473333333     0          
O4       O      0.410896666667     0.815443333333     0.606133333333     0          
O6       O      0.609636666667     0.347653333333     0.286533333333     0          
C1       C      0.647386666667     0.240403333333     0.093333333333     0          
C2       C      0.640236666667     0.208263333333     0.013633333333     0          
C3       C      0.594406666667     0.165263333333     0.998233333333     0          
H1       H      0.568466666667     0.155133333333     0.039233333333     0          
C4       C      0.587016666667     0.137143333333     0.921833333333     0          
H2       H      0.556566666667     0.107533333333     0.913533333333     0          
C5       C      0.624076666667     0.152263333333     0.857733333333     0          
C6       C      0.669566666667     0.194433333333     0.875933333333     0          
H3       H      0.695566666667     0.205033333333     0.834733333333     0          
C7       C      0.678066666667     0.221733333333     0.954333333333     0          
H4       H      0.709766666667     0.249133333333     0.965833333333     0          
C8       C      0.614496666667     0.125453333333     0.771233333333     0          
C9       C      0.584196666667     0.073443333333     0.766733333333     0          
H5       H      0.570966666667     0.055133333333     0.818833333333     0          
C10      C      0.573266666667     0.048133333333     0.685933333333     0          
C11      C      0.593366666667     0.075613333333     0.608633333333     0          
H6       H      0.586366666667     0.059133333333     0.554133333333     0          
C12      C      0.623866666667     0.127623333333     0.612333333333     0          
H7       H      0.637366666667     0.146033333333     0.560433333333     0          
C13      C      0.633936666667     0.151833333333     0.693333333333     0          
H8       H      0.654266666667     0.186633333333     0.695533333333     0          
C14      C      0.539466666667     0.992143333333     0.683233333333     0          
C15      C      0.542766666667     0.961353333333     0.745533333333     0          
H9       H      0.566366666667     0.975433333333     0.790933333333     0          
C16      C      0.511466666667     0.909353333333     0.742133333333     0          
H10      H      0.514266666667     0.889133333333     0.785133333333     0          
C17      C      0.476256666667     0.887743333333     0.675133333333     0          
C18      C      0.472066666667     0.918373333333     0.613433333333     0          
H11      H      0.448166666667     0.904233333333     0.568533333333     0          
C19      C      0.503166666667     0.970113333333     0.617633333333     0          
H12      H      0.499566666667     0.990433333333     0.575633333333     0          
C20      C      0.442506666667     0.831993333333     0.670533333333     0          
O5       O      0.666666666667     0.333333333333     0.192533333333     0          
Zr1      Zr     0.724136666667     0.318863333333     0.238503333333     0          
O1       O      0.761626666667     0.369563333333     0.123813333333     0          
O2       O      0.732546666667     0.424673333333     0.121803333333     0          
O3       O      0.193926666667     0.642673333333     0.730473333333     0          
O4       O      0.184556666667     0.595453333333     0.606133333333     0          
O6       O      0.652346666667     0.261983333333     0.286533333333     0          
C1       C      0.759596666667     0.406983333333     0.093333333333     0          
C2       C      0.791736666667     0.431973333333     0.013633333333     0          
C3       C      0.834736666667     0.429143333333     0.998233333333     0          
H1       H      0.844866666667     0.413333333333     0.039233333333     0          
C4       C      0.862856666667     0.449873333333     0.921833333333     0          
H2       H      0.892466666667     0.449033333333     0.913533333333     0          
C5       C      0.847736666667     0.471813333333     0.857733333333     0          
C6       C      0.805566666667     0.475133333333     0.875933333333     0          
H3       H      0.794966666667     0.490533333333     0.834733333333     0          
C7       C      0.778266666667     0.456333333333     0.954333333333     0          
H4       H      0.750866666667     0.460633333333     0.965833333333     0          
C8       C      0.874546666667     0.489043333333     0.771233333333     0          
C9       C      0.926556666667     0.510753333333     0.766733333333     0          
H5       H      0.944866666667     0.515833333333     0.818833333333     0          
C10      C      0.951866666667     0.525133333333     0.685933333333     0          
C11      C      0.924386666667     0.517753333333     0.608633333333     0          
H6       H      0.940866666667     0.527233333333     0.554133333333     0          
C12      C      0.872376666667     0.496243333333     0.612333333333     0          
H7       H      0.853966666667     0.491333333333     0.560433333333     0          
C13      C      0.848166666667     0.482103333333     0.693333333333     0          
H8       H      0.813366666667     0.467633333333     0.695533333333     0          
C14      C      0.007856666667     0.547323333333     0.683233333333     0          
C15      C      0.038646666667     0.581413333333     0.745533333333     0          
H9       H      0.024566666667     0.590933333333     0.790933333333     0          
C16      C      0.090646666667     0.602113333333     0.742133333333     0          
H10      H      0.110866666667     0.625133333333     0.785133333333     0          
C17      C      0.112256666667     0.588513333333     0.675133333333     0          
C18      C      0.081626666667     0.553693333333     0.613433333333     0          
H11      H      0.095766666667     0.543933333333     0.568533333333     0          
C19      C      0.029886666667     0.533053333333     0.617633333333     0          
H12      H      0.009566666667     0.509133333333     0.575633333333     0          
C20      C      0.168006666667     0.610513333333     0.670533333333     0          
Zr1      Zr     0.681136666667     0.405273333333     0.238503333333     0          
O1       O      0.630436666667     0.392063333333     0.123813333333     0          
O2       O      0.575326666667     0.307873333333     0.121803333333     0          
O3       O      0.357326666667     0.551253333333     0.730473333333     0          
O4       O      0.404546666667     0.589103333333     0.606133333333     0          
O6       O      0.738016666667     0.390363333333     0.286533333333     0          
C1       C      0.593016666667     0.352613333333     0.093333333333     0          
C2       C      0.568026666667     0.359763333333     0.013633333333     0          
C3       C      0.570856666667     0.405593333333     0.998233333333     0          
H1       H      0.586666666667     0.431533333333     0.039233333333     0          
C4       C      0.550126666667     0.412983333333     0.921833333333     0          
H2       H      0.550966666667     0.443433333333     0.913533333333     0          
C5       C      0.528186666667     0.375923333333     0.857733333333     0          
C6       C      0.524866666667     0.330433333333     0.875933333333     0          
H3       H      0.509466666667     0.304433333333     0.834733333333     0          
C7       C      0.543666666667     0.321933333333     0.954333333333     0          
H4       H      0.539366666667     0.290233333333     0.965833333333     0          
C8       C      0.510956666667     0.385503333333     0.771233333333     0          
C9       C      0.489246666667     0.415803333333     0.766733333333     0          
H5       H      0.484166666667     0.429033333333     0.818833333333     0          
C10      C      0.474866666667     0.426733333333     0.685933333333     0          
C11      C      0.482246666667     0.406633333333     0.608633333333     0          
H6       H      0.472766666667     0.413633333333     0.554133333333     0          
C12      C      0.503756666667     0.376133333333     0.612333333333     0          
H7       H      0.508666666667     0.362633333333     0.560433333333     0          
C13      C      0.517896666667     0.366063333333     0.693333333333     0          
H8       H      0.532366666667     0.345733333333     0.695533333333     0          
C14      C      0.452676666667     0.460533333333     0.683233333333     0          
C15      C      0.418586666667     0.457233333333     0.745533333333     0          
H9       H      0.409066666667     0.433633333333     0.790933333333     0          
C16      C      0.397886666667     0.488533333333     0.742133333333     0          
H10      H      0.374866666667     0.485733333333     0.785133333333     0          
C17      C      0.411486666667     0.523743333333     0.675133333333     0          
C18      C      0.446306666667     0.527933333333     0.613433333333     0          
H11      H      0.456066666667     0.551833333333     0.568533333333     0          
C19      C      0.466946666667     0.496833333333     0.617633333333     0          
H12      H      0.490866666667     0.500433333333     0.575633333333     0          
C20      C      0.389486666667     0.557493333333     0.670533333333     0          
Zr1      Zr     0.405273333333     0.724136666667     0.761496666667     0          
O1       O      0.392063333333     0.761626666667     0.876186666667     0          
O2       O      0.307873333333     0.732546666667     0.878196666667     0          
O3       O      0.551253333333     0.193926666667     0.269526666667     0          
O4       O      0.589103333333     0.184556666667     0.393866666667     0          
O6       O      0.390363333333     0.652346666667     0.713466666667     0          
C1       C      0.352613333333     0.759596666667     0.906666666667     0          
C2       C      0.359763333333     0.791736666667     0.986366666667     0          
C3       C      0.405593333333     0.834736666667     0.001766666667     0          
H1       H      0.431533333333     0.844866666667     0.960766666667     0          
C4       C      0.412983333333     0.862856666667     0.078166666667     0          
H2       H      0.443433333333     0.892466666667     0.086466666667     0          
C5       C      0.375923333333     0.847736666667     0.142266666667     0          
C6       C      0.330433333333     0.805566666667     0.124066666667     0          
H3       H      0.304433333333     0.794966666667     0.165266666667     0          
C7       C      0.321933333333     0.778266666667     0.045666666667     0          
H4       H      0.290233333333     0.750866666667     0.034166666667     0          
C8       C      0.385503333333     0.874546666667     0.228766666667     0          
C9       C      0.415803333333     0.926556666667     0.233266666667     0          
H5       H      0.429033333333     0.944866666667     0.181166666667     0          
C10      C      0.426733333333     0.951866666667     0.314066666667     0          
C11      C      0.406633333333     0.924386666667     0.391366666667     0          
H6       H      0.413633333333     0.940866666667     0.445866666667     0          
C12      C      0.376133333333     0.872376666667     0.387666666667     0          
H7       H      0.362633333333     0.853966666667     0.439566666667     0          
C13      C      0.366063333333     0.848166666667     0.306666666667     0          
H8       H      0.345733333333     0.813366666667     0.304466666667     0          
C14      C      0.460533333333     0.007856666667     0.316766666667     0          
C15      C      0.457233333333     0.038646666667     0.254466666667     0          
H9       H      0.433633333333     0.024566666667     0.209066666667     0          
C16      C      0.488533333333     0.090646666667     0.257866666667     0          
H10      H      0.485733333333     0.110866666667     0.214866666667     0          
C17      C      0.523743333333     0.112256666667     0.324866666667     0          
C18      C      0.527933333333     0.081626666667     0.386566666667     0          
H11      H      0.551833333333     0.095766666667     0.431466666667     0          
C19      C      0.496833333333     0.029886666667     0.382366666667     0          
H12      H      0.500433333333     0.009566666667     0.424366666667     0          
C20      C      0.557493333333     0.168006666667     0.329466666667     0          
O5       O      0.333333333333     0.666666666667     0.807466666667     0          
Zr1      Zr     0.275863333333     0.681136666667     0.761496666667     0          
O1       O      0.238373333333     0.630436666667     0.876186666667     0          
O2       O      0.267453333333     0.575326666667     0.878196666667     0          
O3       O      0.806073333333     0.357326666667     0.269526666667     0          
O4       O      0.815443333333     0.404546666667     0.393866666667     0          
O6       O      0.347653333333     0.738016666667     0.713466666667     0          
C1       C      0.240403333333     0.593016666667     0.906666666667     0          
C2       C      0.208263333333     0.568026666667     0.986366666667     0          
C3       C      0.165263333333     0.570856666667     0.001766666667     0          
H1       H      0.155133333333     0.586666666667     0.960766666667     0          
C4       C      0.137143333333     0.550126666667     0.078166666667     0          
H2       H      0.107533333333     0.550966666667     0.086466666667     0          
C5       C      0.152263333333     0.528186666667     0.142266666667     0          
C6       C      0.194433333333     0.524866666667     0.124066666667     0          
H3       H      0.205033333333     0.509466666667     0.165266666667     0          
C7       C      0.221733333333     0.543666666667     0.045666666667     0          
H4       H      0.249133333333     0.539366666667     0.034166666667     0          
C8       C      0.125453333333     0.510956666667     0.228766666667     0          
C9       C      0.073443333333     0.489246666667     0.233266666667     0          
H5       H      0.055133333333     0.484166666667     0.181166666667     0          
C10      C      0.048133333333     0.474866666667     0.314066666667     0          
C11      C      0.075613333333     0.482246666667     0.391366666667     0          
H6       H      0.059133333333     0.472766666667     0.445866666667     0          
C12      C      0.127623333333     0.503756666667     0.387666666667     0          
H7       H      0.146033333333     0.508666666667     0.439566666667     0          
C13      C      0.151833333333     0.517896666667     0.306666666667     0          
H8       H      0.186633333333     0.532366666667     0.304466666667     0          
C14      C      0.992143333333     0.452676666667     0.316766666667     0          
C15      C      0.961353333333     0.418586666667     0.254466666667     0          
H9       H      0.975433333333     0.409066666667     0.209066666667     0          
C16      C      0.909353333333     0.397886666667     0.257866666667     0          
H10      H      0.889133333333     0.374866666667     0.214866666667     0          
C17      C      0.887743333333     0.411486666667     0.324866666667     0          
C18      C      0.918373333333     0.446306666667     0.386566666667     0          
H11      H      0.904233333333     0.456066666667     0.431466666667     0          
C19      C      0.970113333333     0.466946666667     0.382366666667     0          
H12      H      0.990433333333     0.490866666667     0.424366666667     0          
C20      C      0.831993333333     0.389486666667     0.329466666667     0          
Zr1      Zr     0.318863333333     0.594726666667     0.761496666667     0          
O1       O      0.369563333333     0.607936666667     0.876186666667     0          
O2       O      0.424673333333     0.692126666667     0.878196666667     0          
O3       O      0.642673333333     0.448746666667     0.269526666667     0          
O4       O      0.595453333333     0.410896666667     0.393866666667     0          
O6       O      0.261983333333     0.609636666667     0.713466666667     0          
C1       C      0.406983333333     0.647386666667     0.906666666667     0          
C2       C      0.431973333333     0.640236666667     0.986366666667     0          
C3       C      0.429143333333     0.594406666667     0.001766666667     0          
H1       H      0.413333333333     0.568466666667     0.960766666667     0          
C4       C      0.449873333333     0.587016666667     0.078166666667     0          
H2       H      0.449033333333     0.556566666667     0.086466666667     0          
C5       C      0.471813333333     0.624076666667     0.142266666667     0          
C6       C      0.475133333333     0.669566666667     0.124066666667     0          
H3       H      0.490533333333     0.695566666667     0.165266666667     0          
C7       C      0.456333333333     0.678066666667     0.045666666667     0          
H4       H      0.460633333333     0.709766666667     0.034166666667     0          
C8       C      0.489043333333     0.614496666667     0.228766666667     0          
C9       C      0.510753333333     0.584196666667     0.233266666667     0          
H5       H      0.515833333333     0.570966666667     0.181166666667     0          
C10      C      0.525133333333     0.573266666667     0.314066666667     0          
C11      C      0.517753333333     0.593366666667     0.391366666667     0          
H6       H      0.527233333333     0.586366666667     0.445866666667     0          
C12      C      0.496243333333     0.623866666667     0.387666666667     0          
H7       H      0.491333333333     0.637366666667     0.439566666667     0          
C13      C      0.482103333333     0.633936666667     0.306666666667     0          
H8       H      0.467633333333     0.654266666667     0.304466666667     0          
C14      C      0.547323333333     0.539466666667     0.316766666667     0          
C15      C      0.581413333333     0.542766666667     0.254466666667     0          
H9       H      0.590933333333     0.566366666667     0.209066666667     0          
C16      C      0.602113333333     0.511466666667     0.257866666667     0          
H10      H      0.625133333333     0.514266666667     0.214866666667     0          
C17      C      0.588513333333     0.476256666667     0.324866666667     0          
C18      C      0.553693333333     0.472066666667     0.386566666667     0          
H11      H      0.543933333333     0.448166666667     0.431466666667     0          
C19      C      0.533053333333     0.503166666667     0.382366666667     0          
H12      H      0.509133333333     0.499566666667     0.424366666667     0          
C20      C      0.610513333333     0.442506666667     0.329466666667     0          
Zr1      Zr     0.261393333333     0.609196666667     0.571836666667     0          
O1       O      0.274603333333     0.571706666667     0.457146666667     0          
O2       O      0.358793333333     0.600786666667     0.455136666667     0          
O3       O      0.115413333333     0.139406666667     0.063806666667     0          
O4       O      0.077563333333     0.148776666667     0.939466666667     0          
O6       O      0.276303333333     0.680986666667     0.619866666667     0          
C1       C      0.314053333333     0.573736666667     0.426666666667     0          
C2       C      0.306903333333     0.541596666667     0.346966666667     0          
C3       C      0.261073333333     0.498596666667     0.331566666667     0          
H1       H      0.235133333333     0.488466666667     0.372566666667     0          
C4       C      0.253683333333     0.470476666667     0.255166666667     0          
H2       H      0.223233333333     0.440866666667     0.246866666667     0          
C5       C      0.290743333333     0.485596666667     0.191066666667     0          
C6       C      0.336233333333     0.527766666667     0.209266666667     0          
H3       H      0.362233333333     0.538366666667     0.168066666667     0          
C7       C      0.344733333333     0.555066666667     0.287666666667     0          
H4       H      0.376433333333     0.582466666667     0.299166666667     0          
C8       C      0.281163333333     0.458786666667     0.104566666667     0          
C9       C      0.250863333333     0.406776666667     0.100066666667     0          
H5       H      0.237633333333     0.388466666667     0.152166666667     0          
C10      C      0.239933333333     0.381466666667     0.019266666667     0          
C11      C      0.260033333333     0.408946666667     0.941966666667     0          
H6       H      0.253033333333     0.392466666667     0.887466666667     0          
C12      C      0.290533333333     0.460956666667     0.945666666667     0          
H7       H      0.304033333333     0.479366666667     0.893766666667     0          
C13      C      0.300603333333     0.485166666667     0.026666666667     0          
H8       H      0.320933333333     0.519966666667     0.028866666667     0          
C14      C      0.206133333333     0.325476666667     0.016566666667     0          
C15      C      0.209433333333     0.294686666667     0.078866666667     0          
H9       H      0.233033333333     0.308766666667     0.124266666667     0          
C16      C      0.178133333333     0.242686666667     0.075466666667     0          
H10      H      0.180933333333     0.222466666667     0.118466666667     0          
C17      C      0.142923333333     0.221076666667     0.008466666667     0          
C18      C      0.138733333333     0.251706666667     0.946766666667     0          
H11      H      0.114833333333     0.237566666667     0.901866666667     0          
C19      C      0.169833333333     0.303446666667     0.950966666667     0          
H12      H      0.166233333333     0.323766666667     0.908966666667     0          
C20      C      0.109173333333     0.165326666667     0.003866666667     0          
O5       O      0.333333333333     0.666666666667     0.525866666667     0          
Zr1      Zr     0.390803333333     0.652196666667     0.571836666667     0          
O1       O      0.428293333333     0.702896666667     0.457146666667     0          
O2       O      0.399213333333     0.758006666667     0.455136666667     0          
O3       O      0.860593333333     0.976006666667     0.063806666667     0          
O4       O      0.851223333333     0.928786666667     0.939466666667     0          
O6       O      0.319013333333     0.595316666667     0.619866666667     0          
C1       C      0.426263333333     0.740316666667     0.426666666667     0          
C2       C      0.458403333333     0.765306666667     0.346966666667     0          
C3       C      0.501403333333     0.762476666667     0.331566666667     0          
H1       H      0.511533333333     0.746666666667     0.372566666667     0          
C4       C      0.529523333333     0.783206666667     0.255166666667     0          
H2       H      0.559133333333     0.782366666667     0.246866666667     0          
C5       C      0.514403333333     0.805146666667     0.191066666667     0          
C6       C      0.472233333333     0.808466666667     0.209266666667     0          
H3       H      0.461633333333     0.823866666667     0.168066666667     0          
C7       C      0.444933333333     0.789666666667     0.287666666667     0          
H4       H      0.417533333333     0.793966666667     0.299166666667     0          
C8       C      0.541213333333     0.822376666667     0.104566666667     0          
C9       C      0.593223333333     0.844086666667     0.100066666667     0          
H5       H      0.611533333333     0.849166666667     0.152166666667     0          
C10      C      0.618533333333     0.858466666667     0.019266666667     0          
C11      C      0.591053333333     0.851086666667     0.941966666667     0          
H6       H      0.607533333333     0.860566666667     0.887466666667     0          
C12      C      0.539043333333     0.829576666667     0.945666666667     0          
H7       H      0.520633333333     0.824666666667     0.893766666667     0          
C13      C      0.514833333333     0.815436666667     0.026666666667     0          
H8       H      0.480033333333     0.800966666667     0.028866666667     0          
C14      C      0.674523333333     0.880656666667     0.016566666667     0          
C15      C      0.705313333333     0.914746666667     0.078866666667     0          
H9       H      0.691233333333     0.924266666667     0.124266666667     0          
C16      C      0.757313333333     0.935446666667     0.075466666667     0          
H10      H      0.777533333333     0.958466666667     0.118466666667     0          
C17      C      0.778923333333     0.921846666667     0.008466666667     0          
C18      C      0.748293333333     0.887026666667     0.946766666667     0          
H11      H      0.762433333333     0.877266666667     0.901866666667     0          
C19      C      0.696553333333     0.866386666667     0.950966666667     0          
H12      H      0.676233333333     0.842466666667     0.908966666667     0          
C20      C      0.834673333333     0.943846666667     0.003866666667     0          
Zr1      Zr     0.347803333333     0.738606666667     0.571836666667     0          
O1       O      0.297103333333     0.725396666667     0.457146666667     0          
O2       O      0.241993333333     0.641206666667     0.455136666667     0          
O3       O      0.023993333333     0.884586666667     0.063806666667     0          
O4       O      0.071213333333     0.922436666667     0.939466666667     0          
O6       O      0.404683333333     0.723696666667     0.619866666667     0          
C1       C      0.259683333333     0.685946666667     0.426666666667     0          
C2       C      0.234693333333     0.693096666667     0.346966666667     0          
C3       C      0.237523333333     0.738926666667     0.331566666667     0          
H1       H      0.253333333333     0.764866666667     0.372566666667     0          
C4       C      0.216793333333     0.746316666667     0.255166666667     0          
H2       H      0.217633333333     0.776766666667     0.246866666667     0          
C5       C      0.194853333333     0.709256666667     0.191066666667     0          
C6       C      0.191533333333     0.663766666667     0.209266666667     0          
H3       H      0.176133333333     0.637766666667     0.168066666667     0          
C7       C      0.210333333333     0.655266666667     0.287666666667     0          
H4       H      0.206033333333     0.623566666667     0.299166666667     0          
C8       C      0.177623333333     0.718836666667     0.104566666667     0          
C9       C      0.155913333333     0.749136666667     0.100066666667     0          
H5       H      0.150833333333     0.762366666667     0.152166666667     0          
C10      C      0.141533333333     0.760066666667     0.019266666667     0          
C11      C      0.148913333333     0.739966666667     0.941966666667     0          
H6       H      0.139433333333     0.746966666667     0.887466666667     0          
C12      C      0.170423333333     0.709466666667     0.945666666667     0          
H7       H      0.175333333333     0.695966666667     0.893766666667     0          
C13      C      0.184563333333     0.699396666667     0.026666666667     0          
H8       H      0.199033333333     0.679066666667     0.028866666667     0          
C14      C      0.119343333333     0.793866666667     0.016566666667     0          
C15      C      0.085253333333     0.790566666667     0.078866666667     0          
H9       H      0.075733333333     0.766966666667     0.124266666667     0          
C16      C      0.064553333333     0.821866666667     0.075466666667     0          
H10      H      0.041533333333     0.819066666667     0.118466666667     0          
C17      C      0.078153333333     0.857076666667     0.008466666667     0          
C18      C      0.112973333333     0.861266666667     0.946766666667     0          
H11      H      0.122733333333     0.885166666667     0.901866666667     0          
C19      C      0.133613333333     0.830166666667     0.950966666667     0          
H12      H      0.157533333333     0.833766666667     0.908966666667     0          
C20      C      0.056153333333     0.890826666667     0.003866666667     0          


