data_BIKMOA

_audit_creation_method RASPA-1.0
_audit_creation_date 2020-4-3
_audit_author_name 'Rocio Bueno-Perez'

_cell_length_a    30.241
_cell_length_b    30.241
_cell_length_c    14.7824
_cell_angle_alpha 90
_cell_angle_beta  90
_cell_angle_gamma 120
_cell_volume      11707.6

_symmetry_cell_setting          trigonal
_symmetry_space_group_name_Hall 'P 1'
_symmetry_space_group_name_H-M  'P 1'
_symmetry_Int_Tables_number     1

_symmetry_equiv_pos_as_xyz 'x,y,z'

loop_
_atom_site_label
_atom_site_type_symbol
_atom_site_fract_x
_atom_site_fract_y
_atom_site_fract_z
_atom_site_charge
Zr1      Zr     0.073210000000     0.057840000000     0.096670000000     0          
O1       O      0.060250000000     0.097420000000     0.212010000000     0          
O2       O      0.974610000000     0.065860000000     0.216010000000     0          
O3       O      0.215010000000     0.526470000000     0.604520000000     0          
O4       O      0.252890000000     0.517000000000     0.729830000000     0          
O6       O      0.057170000000     0.984560000000     0.048000000000     0          
C1       C      0.019690000000     0.093790000000     0.245100000000     0          
C2       C      0.025720000000     0.124050000000     0.329000000000     0          
C3       C      0.068090000000     0.171830000000     0.341400000000     0          
H1       H      0.093400000000     0.186200000000     0.295600000000     0          
C4       C      0.073730000000     0.198840000000     0.420500000000     0          
H2       H      0.102200000000     0.232300000000     0.427100000000     0          
C5       C      0.038130000000     0.177610000000     0.490300000000     0          
C6       C      0.995830000000     0.129240000000     0.476600000000     0          
H3       H      0.971100000000     0.113900000000     0.523200000000     0          
C7       C      0.989330000000     0.103400000000     0.396500000000     0          
H4       H      0.959600000000     0.071100000000     0.387600000000     0          
C8       C      0.045130000000     0.204050000000     0.578100000000     0          
C9       C      0.072020000000     0.257230000000     0.583200000000     0          
H5       H      0.085000000000     0.276600000000     0.529300000000     0          
C10      C      0.080240000000     0.282550000000     0.666000000000     0          
C11      C      0.060660000000     0.254020000000     0.744500000000     0          
H6       H      0.065200000000     0.270800000000     0.800900000000     0          
C12      C      0.034450000000     0.200970000000     0.740700000000     0          
H7       H      0.021800000000     0.181500000000     0.794700000000     0          
C13      C      0.026750000000     0.176510000000     0.658300000000     0          
H8       H      0.008600000000     0.140300000000     0.656300000000     0          
C14      C      0.112870000000     0.339180000000     0.669100000000     0          
C15      C      0.112810000000     0.369650000000     0.599600000000     0          
H9       H      0.089400000000     0.354700000000     0.551000000000     0          
C16      C      0.146770000000     0.422170000000     0.600000000000     0          
H10      H      0.146000000000     0.442700000000     0.552000000000     0          
C17      C      0.181180000000     0.444490000000     0.669200000000     0          
C18      C      0.178100000000     0.415430000000     0.742800000000     0          
H11      H      0.199500000000     0.431000000000     0.793700000000     0          
C19      C      0.143600000000     0.363260000000     0.742900000000     0          
H12      H      0.141100000000     0.343700000000     0.794900000000     0          
C20      C      0.219310000000     0.500500000000     0.667800000000     0          
O5       O      0.000000000000     0.000000000000     0.143100000000     0          
Zr1      Zr     0.942160000000     0.015370000000     0.096670000000     0          
O1       O      0.902580000000     0.962830000000     0.212010000000     0          
O2       O      0.934140000000     0.908750000000     0.216010000000     0          
O3       O      0.473530000000     0.688540000000     0.604520000000     0          
O4       O      0.483000000000     0.735890000000     0.729830000000     0          
O6       O      0.015440000000     0.072610000000     0.048000000000     0          
C1       C      0.906210000000     0.925900000000     0.245100000000     0          
C2       C      0.875950000000     0.901670000000     0.329000000000     0          
C3       C      0.828170000000     0.896260000000     0.341400000000     0          
H1       H      0.813800000000     0.907200000000     0.295600000000     0          
C4       C      0.801160000000     0.874890000000     0.420500000000     0          
H2       H      0.767700000000     0.869900000000     0.427100000000     0          
C5       C      0.822390000000     0.860520000000     0.490300000000     0          
C6       C      0.870760000000     0.866590000000     0.476600000000     0          
H3       H      0.886100000000     0.857200000000     0.523200000000     0          
C7       C      0.896600000000     0.885930000000     0.396500000000     0          
H4       H      0.928900000000     0.888500000000     0.387600000000     0          
C8       C      0.795950000000     0.841080000000     0.578100000000     0          
C9       C      0.742770000000     0.814790000000     0.583200000000     0          
H5       H      0.723400000000     0.808400000000     0.529300000000     0          
C10      C      0.717450000000     0.797690000000     0.666000000000     0          
C11      C      0.745980000000     0.806640000000     0.744500000000     0          
H6       H      0.729200000000     0.794400000000     0.800900000000     0          
C12      C      0.799030000000     0.833480000000     0.740700000000     0          
H7       H      0.818500000000     0.840300000000     0.794700000000     0          
C13      C      0.823490000000     0.850240000000     0.658300000000     0          
H8       H      0.859700000000     0.868300000000     0.656300000000     0          
C14      C      0.660820000000     0.773690000000     0.669100000000     0          
C15      C      0.630350000000     0.743160000000     0.599600000000     0          
H9       H      0.645300000000     0.734700000000     0.551000000000     0          
C16      C      0.577830000000     0.724600000000     0.600000000000     0          
H10      H      0.557300000000     0.703300000000     0.552000000000     0          
C17      C      0.555510000000     0.736690000000     0.669200000000     0          
C18      C      0.584570000000     0.762670000000     0.742800000000     0          
H11      H      0.569000000000     0.768500000000     0.793700000000     0          
C19      C      0.636740000000     0.780340000000     0.742900000000     0          
H12      H      0.656300000000     0.797400000000     0.794900000000     0          
C20      C      0.499500000000     0.718810000000     0.667800000000     0          
Zr1      Zr     0.984630000000     0.926790000000     0.096670000000     0          
O1       O      0.037170000000     0.939750000000     0.212010000000     0          
O2       O      0.091250000000     0.025390000000     0.216010000000     0          
O3       O      0.311460000000     0.784990000000     0.604520000000     0          
O4       O      0.264110000000     0.747110000000     0.729830000000     0          
O6       O      0.927390000000     0.942830000000     0.048000000000     0          
C1       C      0.074100000000     0.980310000000     0.245100000000     0          
C2       C      0.098330000000     0.974280000000     0.329000000000     0          
C3       C      0.103740000000     0.931910000000     0.341400000000     0          
H1       H      0.092800000000     0.906600000000     0.295600000000     0          
C4       C      0.125110000000     0.926270000000     0.420500000000     0          
H2       H      0.130100000000     0.897800000000     0.427100000000     0          
C5       C      0.139480000000     0.961870000000     0.490300000000     0          
C6       C      0.133410000000     0.004170000000     0.476600000000     0          
H3       H      0.142800000000     0.028900000000     0.523200000000     0          
C7       C      0.114070000000     0.010670000000     0.396500000000     0          
H4       H      0.111500000000     0.040400000000     0.387600000000     0          
C8       C      0.158920000000     0.954870000000     0.578100000000     0          
C9       C      0.185210000000     0.927980000000     0.583200000000     0          
H5       H      0.191600000000     0.915000000000     0.529300000000     0          
C10      C      0.202310000000     0.919760000000     0.666000000000     0          
C11      C      0.193360000000     0.939340000000     0.744500000000     0          
H6       H      0.205600000000     0.934800000000     0.800900000000     0          
C12      C      0.166520000000     0.965550000000     0.740700000000     0          
H7       H      0.159700000000     0.978200000000     0.794700000000     0          
C13      C      0.149760000000     0.973250000000     0.658300000000     0          
H8       H      0.131700000000     0.991400000000     0.656300000000     0          
C14      C      0.226310000000     0.887130000000     0.669100000000     0          
C15      C      0.256840000000     0.887190000000     0.599600000000     0          
H9       H      0.265300000000     0.910600000000     0.551000000000     0          
C16      C      0.275400000000     0.853230000000     0.600000000000     0          
H10      H      0.296700000000     0.854000000000     0.552000000000     0          
C17      C      0.263310000000     0.818820000000     0.669200000000     0          
C18      C      0.237330000000     0.821900000000     0.742800000000     0          
H11      H      0.231500000000     0.800500000000     0.793700000000     0          
C19      C      0.219660000000     0.856400000000     0.742900000000     0          
H12      H      0.202600000000     0.858900000000     0.794900000000     0          
C20      C      0.281190000000     0.780690000000     0.667800000000     0          
Zr1      Zr     0.926790000000     0.942160000000     0.903330000000     0          
O1       O      0.939750000000     0.902580000000     0.787990000000     0          
O2       O      0.025390000000     0.934140000000     0.783990000000     0          
O3       O      0.784990000000     0.473530000000     0.395480000000     0          
O4       O      0.747110000000     0.483000000000     0.270170000000     0          
O6       O      0.942830000000     0.015440000000     0.952000000000     0          
C1       C      0.980310000000     0.906210000000     0.754900000000     0          
C2       C      0.974280000000     0.875950000000     0.671000000000     0          
C3       C      0.931910000000     0.828170000000     0.658600000000     0          
H1       H      0.906600000000     0.813800000000     0.704400000000     0          
C4       C      0.926270000000     0.801160000000     0.579500000000     0          
H2       H      0.897800000000     0.767700000000     0.572900000000     0          
C5       C      0.961870000000     0.822390000000     0.509700000000     0          
C6       C      0.004170000000     0.870760000000     0.523400000000     0          
H3       H      0.028900000000     0.886100000000     0.476800000000     0          
C7       C      0.010670000000     0.896600000000     0.603500000000     0          
H4       H      0.040400000000     0.928900000000     0.612400000000     0          
C8       C      0.954870000000     0.795950000000     0.421900000000     0          
C9       C      0.927980000000     0.742770000000     0.416800000000     0          
H5       H      0.915000000000     0.723400000000     0.470700000000     0          
C10      C      0.919760000000     0.717450000000     0.334000000000     0          
C11      C      0.939340000000     0.745980000000     0.255500000000     0          
H6       H      0.934800000000     0.729200000000     0.199100000000     0          
C12      C      0.965550000000     0.799030000000     0.259300000000     0          
H7       H      0.978200000000     0.818500000000     0.205300000000     0          
C13      C      0.973250000000     0.823490000000     0.341700000000     0          
H8       H      0.991400000000     0.859700000000     0.343700000000     0          
C14      C      0.887130000000     0.660820000000     0.330900000000     0          
C15      C      0.887190000000     0.630350000000     0.400400000000     0          
H9       H      0.910600000000     0.645300000000     0.449000000000     0          
C16      C      0.853230000000     0.577830000000     0.400000000000     0          
H10      H      0.854000000000     0.557300000000     0.448000000000     0          
C17      C      0.818820000000     0.555510000000     0.330800000000     0          
C18      C      0.821900000000     0.584570000000     0.257200000000     0          
H11      H      0.800500000000     0.569000000000     0.206300000000     0          
C19      C      0.856400000000     0.636740000000     0.257100000000     0          
H12      H      0.858900000000     0.656300000000     0.205100000000     0          
C20      C      0.780690000000     0.499500000000     0.332200000000     0          
O5       O      0.000000000000     0.000000000000     0.856900000000     0          
Zr1      Zr     0.057840000000     0.984630000000     0.903330000000     0          
O1       O      0.097420000000     0.037170000000     0.787990000000     0          
O2       O      0.065860000000     0.091250000000     0.783990000000     0          
O3       O      0.526470000000     0.311460000000     0.395480000000     0          
O4       O      0.517000000000     0.264110000000     0.270170000000     0          
O6       O      0.984560000000     0.927390000000     0.952000000000     0          
C1       C      0.093790000000     0.074100000000     0.754900000000     0          
C2       C      0.124050000000     0.098330000000     0.671000000000     0          
C3       C      0.171830000000     0.103740000000     0.658600000000     0          
H1       H      0.186200000000     0.092800000000     0.704400000000     0          
C4       C      0.198840000000     0.125110000000     0.579500000000     0          
H2       H      0.232300000000     0.130100000000     0.572900000000     0          
C5       C      0.177610000000     0.139480000000     0.509700000000     0          
C6       C      0.129240000000     0.133410000000     0.523400000000     0          
H3       H      0.113900000000     0.142800000000     0.476800000000     0          
C7       C      0.103400000000     0.114070000000     0.603500000000     0          
H4       H      0.071100000000     0.111500000000     0.612400000000     0          
C8       C      0.204050000000     0.158920000000     0.421900000000     0          
C9       C      0.257230000000     0.185210000000     0.416800000000     0          
H5       H      0.276600000000     0.191600000000     0.470700000000     0          
C10      C      0.282550000000     0.202310000000     0.334000000000     0          
C11      C      0.254020000000     0.193360000000     0.255500000000     0          
H6       H      0.270800000000     0.205600000000     0.199100000000     0          
C12      C      0.200970000000     0.166520000000     0.259300000000     0          
H7       H      0.181500000000     0.159700000000     0.205300000000     0          
C13      C      0.176510000000     0.149760000000     0.341700000000     0          
H8       H      0.140300000000     0.131700000000     0.343700000000     0          
C14      C      0.339180000000     0.226310000000     0.330900000000     0          
C15      C      0.369650000000     0.256840000000     0.400400000000     0          
H9       H      0.354700000000     0.265300000000     0.449000000000     0          
C16      C      0.422170000000     0.275400000000     0.400000000000     0          
H10      H      0.442700000000     0.296700000000     0.448000000000     0          
C17      C      0.444490000000     0.263310000000     0.330800000000     0          
C18      C      0.415430000000     0.237330000000     0.257200000000     0          
H11      H      0.431000000000     0.231500000000     0.206300000000     0          
C19      C      0.363260000000     0.219660000000     0.257100000000     0          
H12      H      0.343700000000     0.202600000000     0.205100000000     0          
C20      C      0.500500000000     0.281190000000     0.332200000000     0          
Zr1      Zr     0.015370000000     0.073210000000     0.903330000000     0          
O1       O      0.962830000000     0.060250000000     0.787990000000     0          
O2       O      0.908750000000     0.974610000000     0.783990000000     0          
O3       O      0.688540000000     0.215010000000     0.395480000000     0          
O4       O      0.735890000000     0.252890000000     0.270170000000     0          
O6       O      0.072610000000     0.057170000000     0.952000000000     0          
C1       C      0.925900000000     0.019690000000     0.754900000000     0          
C2       C      0.901670000000     0.025720000000     0.671000000000     0          
C3       C      0.896260000000     0.068090000000     0.658600000000     0          
H1       H      0.907200000000     0.093400000000     0.704400000000     0          
C4       C      0.874890000000     0.073730000000     0.579500000000     0          
H2       H      0.869900000000     0.102200000000     0.572900000000     0          
C5       C      0.860520000000     0.038130000000     0.509700000000     0          
C6       C      0.866590000000     0.995830000000     0.523400000000     0          
H3       H      0.857200000000     0.971100000000     0.476800000000     0          
C7       C      0.885930000000     0.989330000000     0.603500000000     0          
H4       H      0.888500000000     0.959600000000     0.612400000000     0          
C8       C      0.841080000000     0.045130000000     0.421900000000     0          
C9       C      0.814790000000     0.072020000000     0.416800000000     0          
H5       H      0.808400000000     0.085000000000     0.470700000000     0          
C10      C      0.797690000000     0.080240000000     0.334000000000     0          
C11      C      0.806640000000     0.060660000000     0.255500000000     0          
H6       H      0.794400000000     0.065200000000     0.199100000000     0          
C12      C      0.833480000000     0.034450000000     0.259300000000     0          
H7       H      0.840300000000     0.021800000000     0.205300000000     0          
C13      C      0.850240000000     0.026750000000     0.341700000000     0          
H8       H      0.868300000000     0.008600000000     0.343700000000     0          
C14      C      0.773690000000     0.112870000000     0.330900000000     0          
C15      C      0.743160000000     0.112810000000     0.400400000000     0          
H9       H      0.734700000000     0.089400000000     0.449000000000     0          
C16      C      0.724600000000     0.146770000000     0.400000000000     0          
H10      H      0.703300000000     0.146000000000     0.448000000000     0          
C17      C      0.736690000000     0.181180000000     0.330800000000     0          
C18      C      0.762670000000     0.178100000000     0.257200000000     0          
H11      H      0.768500000000     0.199500000000     0.206300000000     0          
C19      C      0.780340000000     0.143600000000     0.257100000000     0          
H12      H      0.797400000000     0.141100000000     0.205100000000     0          
C20      C      0.718810000000     0.219310000000     0.332200000000     0          
Zr1      Zr     0.739876666667     0.391173333333     0.430003333333     0          
O1       O      0.726916666667     0.430753333333     0.545343333333     0          
O2       O      0.641276666667     0.399193333333     0.549343333333     0          
O3       O      0.881676666667     0.859803333333     0.937853333333     0          
O4       O      0.919556666667     0.850333333333     0.063163333333     0          
O6       O      0.723836666667     0.317893333333     0.381333333333     0          
C1       C      0.686356666667     0.427123333333     0.578433333333     0          
C2       C      0.692386666667     0.457383333333     0.662333333333     0          
C3       C      0.734756666667     0.505163333333     0.674733333333     0          
H1       H      0.760066666667     0.519533333333     0.628933333333     0          
C4       C      0.740396666667     0.532173333333     0.753833333333     0          
H2       H      0.768866666667     0.565633333333     0.760433333333     0          
C5       C      0.704796666667     0.510943333333     0.823633333333     0          
C6       C      0.662496666667     0.462573333333     0.809933333333     0          
H3       H      0.637766666667     0.447233333333     0.856533333333     0          
C7       C      0.655996666667     0.436733333333     0.729833333333     0          
H4       H      0.626266666667     0.404433333333     0.720933333333     0          
C8       C      0.711796666667     0.537383333333     0.911433333333     0          
C9       C      0.738686666667     0.590563333333     0.916533333333     0          
H5       H      0.751666666667     0.609933333333     0.862633333333     0          
C10      C      0.746906666667     0.615883333333     0.999333333333     0          
C11      C      0.727326666667     0.587353333333     0.077833333333     0          
H6       H      0.731866666667     0.604133333333     0.134233333333     0          
C12      C      0.701116666667     0.534303333333     0.074033333333     0          
H7       H      0.688466666667     0.514833333333     0.128033333333     0          
C13      C      0.693416666667     0.509843333333     0.991633333333     0          
H8       H      0.675266666667     0.473633333333     0.989633333333     0          
C14      C      0.779536666667     0.672513333333     0.002433333333     0          
C15      C      0.779476666667     0.702983333333     0.932933333333     0          
H9       H      0.756066666667     0.688033333333     0.884333333333     0          
C16      C      0.813436666667     0.755503333333     0.933333333333     0          
H10      H      0.812666666667     0.776033333333     0.885333333333     0          
C17      C      0.847846666667     0.777823333333     0.002533333333     0          
C18      C      0.844766666667     0.748763333333     0.076133333333     0          
H11      H      0.866166666667     0.764333333333     0.127033333333     0          
C19      C      0.810266666667     0.696593333333     0.076233333333     0          
H12      H      0.807766666667     0.677033333333     0.128233333333     0          
C20      C      0.885976666667     0.833833333333     0.001133333333     0          
O5       O      0.666666666667     0.333333333333     0.476433333333     0          
Zr1      Zr     0.608826666667     0.348703333333     0.430003333333     0          
O1       O      0.569246666667     0.296163333333     0.545343333333     0          
O2       O      0.600806666667     0.242083333333     0.549343333333     0          
O3       O      0.140196666667     0.021873333333     0.937853333333     0          
O4       O      0.149666666667     0.069223333333     0.063163333333     0          
O6       O      0.682106666667     0.405943333333     0.381333333333     0          
C1       C      0.572876666667     0.259233333333     0.578433333333     0          
C2       C      0.542616666667     0.235003333333     0.662333333333     0          
C3       C      0.494836666667     0.229593333333     0.674733333333     0          
H1       H      0.480466666667     0.240533333333     0.628933333333     0          
C4       C      0.467826666667     0.208223333333     0.753833333333     0          
H2       H      0.434366666667     0.203233333333     0.760433333333     0          
C5       C      0.489056666667     0.193853333333     0.823633333333     0          
C6       C      0.537426666667     0.199923333333     0.809933333333     0          
H3       H      0.552766666667     0.190533333333     0.856533333333     0          
C7       C      0.563266666667     0.219263333333     0.729833333333     0          
H4       H      0.595566666667     0.221833333333     0.720933333333     0          
C8       C      0.462616666667     0.174413333333     0.911433333333     0          
C9       C      0.409436666667     0.148123333333     0.916533333333     0          
H5       H      0.390066666667     0.141733333333     0.862633333333     0          
C10      C      0.384116666667     0.131023333333     0.999333333333     0          
C11      C      0.412646666667     0.139973333333     0.077833333333     0          
H6       H      0.395866666667     0.127733333333     0.134233333333     0          
C12      C      0.465696666667     0.166813333333     0.074033333333     0          
H7       H      0.485166666667     0.173633333333     0.128033333333     0          
C13      C      0.490156666667     0.183573333333     0.991633333333     0          
H8       H      0.526366666667     0.201633333333     0.989633333333     0          
C14      C      0.327486666667     0.107023333333     0.002433333333     0          
C15      C      0.297016666667     0.076493333333     0.932933333333     0          
H9       H      0.311966666667     0.068033333333     0.884333333333     0          
C16      C      0.244496666667     0.057933333333     0.933333333333     0          
H10      H      0.223966666667     0.036633333333     0.885333333333     0          
C17      C      0.222176666667     0.070023333333     0.002533333333     0          
C18      C      0.251236666667     0.096003333333     0.076133333333     0          
H11      H      0.235666666667     0.101833333333     0.127033333333     0          
C19      C      0.303406666667     0.113673333333     0.076233333333     0          
H12      H      0.322966666667     0.130733333333     0.128233333333     0          
C20      C      0.166166666667     0.052143333333     0.001133333333     0          
Zr1      Zr     0.651296666667     0.260123333333     0.430003333333     0          
O1       O      0.703836666667     0.273083333333     0.545343333333     0          
O2       O      0.757916666667     0.358723333333     0.549343333333     0          
O3       O      0.978126666667     0.118323333333     0.937853333333     0          
O4       O      0.930776666667     0.080443333333     0.063163333333     0          
O6       O      0.594056666667     0.276163333333     0.381333333333     0          
C1       C      0.740766666667     0.313643333333     0.578433333333     0          
C2       C      0.764996666667     0.307613333333     0.662333333333     0          
C3       C      0.770406666667     0.265243333333     0.674733333333     0          
H1       H      0.759466666667     0.239933333333     0.628933333333     0          
C4       C      0.791776666667     0.259603333333     0.753833333333     0          
H2       H      0.796766666667     0.231133333333     0.760433333333     0          
C5       C      0.806146666667     0.295203333333     0.823633333333     0          
C6       C      0.800076666667     0.337503333333     0.809933333333     0          
H3       H      0.809466666667     0.362233333333     0.856533333333     0          
C7       C      0.780736666667     0.344003333333     0.729833333333     0          
H4       H      0.778166666667     0.373733333333     0.720933333333     0          
C8       C      0.825586666667     0.288203333333     0.911433333333     0          
C9       C      0.851876666667     0.261313333333     0.916533333333     0          
H5       H      0.858266666667     0.248333333333     0.862633333333     0          
C10      C      0.868976666667     0.253093333333     0.999333333333     0          
C11      C      0.860026666667     0.272673333333     0.077833333333     0          
H6       H      0.872266666667     0.268133333333     0.134233333333     0          
C12      C      0.833186666667     0.298883333333     0.074033333333     0          
H7       H      0.826366666667     0.311533333333     0.128033333333     0          
C13      C      0.816426666667     0.306583333333     0.991633333333     0          
H8       H      0.798366666667     0.324733333333     0.989633333333     0          
C14      C      0.892976666667     0.220463333333     0.002433333333     0          
C15      C      0.923506666667     0.220523333333     0.932933333333     0          
H9       H      0.931966666667     0.243933333333     0.884333333333     0          
C16      C      0.942066666667     0.186563333333     0.933333333333     0          
H10      H      0.963366666667     0.187333333333     0.885333333333     0          
C17      C      0.929976666667     0.152153333333     0.002533333333     0          
C18      C      0.903996666667     0.155233333333     0.076133333333     0          
H11      H      0.898166666667     0.133833333333     0.127033333333     0          
C19      C      0.886326666667     0.189733333333     0.076233333333     0          
H12      H      0.869266666667     0.192233333333     0.128233333333     0          
C20      C      0.947856666667     0.114023333333     0.001133333333     0          
Zr1      Zr     0.593456666667     0.275493333333     0.236663333333     0          
O1       O      0.606416666667     0.235913333333     0.121323333333     0          
O2       O      0.692056666667     0.267473333333     0.117323333333     0          
O3       O      0.451656666667     0.806863333333     0.728813333333     0          
O4       O      0.413776666667     0.816333333333     0.603503333333     0          
O6       O      0.609496666667     0.348773333333     0.285333333333     0          
C1       C      0.646976666667     0.239543333333     0.088233333333     0          
C2       C      0.640946666667     0.209283333333     0.004333333333     0          
C3       C      0.598576666667     0.161503333333     0.991933333333     0          
H1       H      0.573266666667     0.147133333333     0.037733333333     0          
C4       C      0.592936666667     0.134493333333     0.912833333333     0          
H2       H      0.564466666667     0.101033333333     0.906233333333     0          
C5       C      0.628536666667     0.155723333333     0.843033333333     0          
C6       C      0.670836666667     0.204093333333     0.856733333333     0          
H3       H      0.695566666667     0.219433333333     0.810133333333     0          
C7       C      0.677336666667     0.229933333333     0.936833333333     0          
H4       H      0.707066666667     0.262233333333     0.945733333333     0          
C8       C      0.621536666667     0.129283333333     0.755233333333     0          
C9       C      0.594646666667     0.076103333333     0.750133333333     0          
H5       H      0.581666666667     0.056733333333     0.804033333333     0          
C10      C      0.586426666667     0.050783333333     0.667333333333     0          
C11      C      0.606006666667     0.079313333333     0.588833333333     0          
H6       H      0.601466666667     0.062533333333     0.532433333333     0          
C12      C      0.632216666667     0.132363333333     0.592633333333     0          
H7       H      0.644866666667     0.151833333333     0.538633333333     0          
C13      C      0.639916666667     0.156823333333     0.675033333333     0          
H8       H      0.658066666667     0.193033333333     0.677033333333     0          
C14      C      0.553796666667     0.994153333333     0.664233333333     0          
C15      C      0.553856666667     0.963683333333     0.733733333333     0          
H9       H      0.577266666667     0.978633333333     0.782333333333     0          
C16      C      0.519896666667     0.911163333333     0.733333333333     0          
H10      H      0.520666666667     0.890633333333     0.781333333333     0          
C17      C      0.485486666667     0.888843333333     0.664133333333     0          
C18      C      0.488566666667     0.917903333333     0.590533333333     0          
H11      H      0.467166666667     0.902333333333     0.539633333333     0          
C19      C      0.523066666667     0.970073333333     0.590433333333     0          
H12      H      0.525566666667     0.989633333333     0.538433333333     0          
C20      C      0.447356666667     0.832833333333     0.665533333333     0          
O5       O      0.666666666667     0.333333333333     0.190233333333     0          
Zr1      Zr     0.724506666667     0.317963333333     0.236663333333     0          
O1       O      0.764086666667     0.370503333333     0.121323333333     0          
O2       O      0.732526666667     0.424583333333     0.117323333333     0          
O3       O      0.193136666667     0.644793333333     0.728813333333     0          
O4       O      0.183666666667     0.597443333333     0.603503333333     0          
O6       O      0.651226666667     0.260723333333     0.285333333333     0          
C1       C      0.760456666667     0.407433333333     0.088233333333     0          
C2       C      0.790716666667     0.431663333333     0.004333333333     0          
C3       C      0.838496666667     0.437073333333     0.991933333333     0          
H1       H      0.852866666667     0.426133333333     0.037733333333     0          
C4       C      0.865506666667     0.458443333333     0.912833333333     0          
H2       H      0.898966666667     0.463433333333     0.906233333333     0          
C5       C      0.844276666667     0.472813333333     0.843033333333     0          
C6       C      0.795906666667     0.466743333333     0.856733333333     0          
H3       H      0.780566666667     0.476133333333     0.810133333333     0          
C7       C      0.770066666667     0.447403333333     0.936833333333     0          
H4       H      0.737766666667     0.444833333333     0.945733333333     0          
C8       C      0.870716666667     0.492253333333     0.755233333333     0          
C9       C      0.923896666667     0.518543333333     0.750133333333     0          
H5       H      0.943266666667     0.524933333333     0.804033333333     0          
C10      C      0.949216666667     0.535643333333     0.667333333333     0          
C11      C      0.920686666667     0.526693333333     0.588833333333     0          
H6       H      0.937466666667     0.538933333333     0.532433333333     0          
C12      C      0.867636666667     0.499853333333     0.592633333333     0          
H7       H      0.848166666667     0.493033333333     0.538633333333     0          
C13      C      0.843176666667     0.483093333333     0.675033333333     0          
H8       H      0.806966666667     0.465033333333     0.677033333333     0          
C14      C      0.005846666667     0.559643333333     0.664233333333     0          
C15      C      0.036316666667     0.590173333333     0.733733333333     0          
H9       H      0.021366666667     0.598633333333     0.782333333333     0          
C16      C      0.088836666667     0.608733333333     0.733333333333     0          
H10      H      0.109366666667     0.630033333333     0.781333333333     0          
C17      C      0.111156666667     0.596643333333     0.664133333333     0          
C18      C      0.082096666667     0.570663333333     0.590533333333     0          
H11      H      0.097666666667     0.564833333333     0.539633333333     0          
C19      C      0.029926666667     0.552993333333     0.590433333333     0          
H12      H      0.010366666667     0.535933333333     0.538433333333     0          
C20      C      0.167166666667     0.614523333333     0.665533333333     0          
Zr1      Zr     0.682036666667     0.406543333333     0.236663333333     0          
O1       O      0.629496666667     0.393583333333     0.121323333333     0          
O2       O      0.575416666667     0.307943333333     0.117323333333     0          
O3       O      0.355206666667     0.548343333333     0.728813333333     0          
O4       O      0.402556666667     0.586223333333     0.603503333333     0          
O6       O      0.739276666667     0.390503333333     0.285333333333     0          
C1       C      0.592566666667     0.353023333333     0.088233333333     0          
C2       C      0.568336666667     0.359053333333     0.004333333333     0          
C3       C      0.562926666667     0.401423333333     0.991933333333     0          
H1       H      0.573866666667     0.426733333333     0.037733333333     0          
C4       C      0.541556666667     0.407063333333     0.912833333333     0          
H2       H      0.536566666667     0.435533333333     0.906233333333     0          
C5       C      0.527186666667     0.371463333333     0.843033333333     0          
C6       C      0.533256666667     0.329163333333     0.856733333333     0          
H3       H      0.523866666667     0.304433333333     0.810133333333     0          
C7       C      0.552596666667     0.322663333333     0.936833333333     0          
H4       H      0.555166666667     0.292933333333     0.945733333333     0          
C8       C      0.507746666667     0.378463333333     0.755233333333     0          
C9       C      0.481456666667     0.405353333333     0.750133333333     0          
H5       H      0.475066666667     0.418333333333     0.804033333333     0          
C10      C      0.464356666667     0.413573333333     0.667333333333     0          
C11      C      0.473306666667     0.393993333333     0.588833333333     0          
H6       H      0.461066666667     0.398533333333     0.532433333333     0          
C12      C      0.500146666667     0.367783333333     0.592633333333     0          
H7       H      0.506966666667     0.355133333333     0.538633333333     0          
C13      C      0.516906666667     0.360083333333     0.675033333333     0          
H8       H      0.534966666667     0.341933333333     0.677033333333     0          
C14      C      0.440356666667     0.446203333333     0.664233333333     0          
C15      C      0.409826666667     0.446143333333     0.733733333333     0          
H9       H      0.401366666667     0.422733333333     0.782333333333     0          
C16      C      0.391266666667     0.480103333333     0.733333333333     0          
H10      H      0.369966666667     0.479333333333     0.781333333333     0          
C17      C      0.403356666667     0.514513333333     0.664133333333     0          
C18      C      0.429336666667     0.511433333333     0.590533333333     0          
H11      H      0.435166666667     0.532833333333     0.539633333333     0          
C19      C      0.447006666667     0.476933333333     0.590433333333     0          
H12      H      0.464066666667     0.474433333333     0.538433333333     0          
C20      C      0.385476666667     0.552643333333     0.665533333333     0          
Zr1      Zr     0.406543333333     0.724506666667     0.763336666667     0          
O1       O      0.393583333333     0.764086666667     0.878676666667     0          
O2       O      0.307943333333     0.732526666667     0.882676666667     0          
O3       O      0.548343333333     0.193136666667     0.271186666667     0          
O4       O      0.586223333333     0.183666666667     0.396496666667     0          
O6       O      0.390503333333     0.651226666667     0.714666666667     0          
C1       C      0.353023333333     0.760456666667     0.911766666667     0          
C2       C      0.359053333333     0.790716666667     0.995666666667     0          
C3       C      0.401423333333     0.838496666667     0.008066666667     0          
H1       H      0.426733333333     0.852866666667     0.962266666667     0          
C4       C      0.407063333333     0.865506666667     0.087166666667     0          
H2       H      0.435533333333     0.898966666667     0.093766666667     0          
C5       C      0.371463333333     0.844276666667     0.156966666667     0          
C6       C      0.329163333333     0.795906666667     0.143266666667     0          
H3       H      0.304433333333     0.780566666667     0.189866666667     0          
C7       C      0.322663333333     0.770066666667     0.063166666667     0          
H4       H      0.292933333333     0.737766666667     0.054266666667     0          
C8       C      0.378463333333     0.870716666667     0.244766666667     0          
C9       C      0.405353333333     0.923896666667     0.249866666667     0          
H5       H      0.418333333333     0.943266666667     0.195966666667     0          
C10      C      0.413573333333     0.949216666667     0.332666666667     0          
C11      C      0.393993333333     0.920686666667     0.411166666667     0          
H6       H      0.398533333333     0.937466666667     0.467566666667     0          
C12      C      0.367783333333     0.867636666667     0.407366666667     0          
H7       H      0.355133333333     0.848166666667     0.461366666667     0          
C13      C      0.360083333333     0.843176666667     0.324966666667     0          
H8       H      0.341933333333     0.806966666667     0.322966666667     0          
C14      C      0.446203333333     0.005846666667     0.335766666667     0          
C15      C      0.446143333333     0.036316666667     0.266266666667     0          
H9       H      0.422733333333     0.021366666667     0.217666666667     0          
C16      C      0.480103333333     0.088836666667     0.266666666667     0          
H10      H      0.479333333333     0.109366666667     0.218666666667     0          
C17      C      0.514513333333     0.111156666667     0.335866666667     0          
C18      C      0.511433333333     0.082096666667     0.409466666667     0          
H11      H      0.532833333333     0.097666666667     0.460366666667     0          
C19      C      0.476933333333     0.029926666667     0.409566666667     0          
H12      H      0.474433333333     0.010366666667     0.461566666667     0          
C20      C      0.552643333333     0.167166666667     0.334466666667     0          
O5       O      0.333333333333     0.666666666667     0.809766666667     0          
Zr1      Zr     0.275493333333     0.682036666667     0.763336666667     0          
O1       O      0.235913333333     0.629496666667     0.878676666667     0          
O2       O      0.267473333333     0.575416666667     0.882676666667     0          
O3       O      0.806863333333     0.355206666667     0.271186666667     0          
O4       O      0.816333333333     0.402556666667     0.396496666667     0          
O6       O      0.348773333333     0.739276666667     0.714666666667     0          
C1       C      0.239543333333     0.592566666667     0.911766666667     0          
C2       C      0.209283333333     0.568336666667     0.995666666667     0          
C3       C      0.161503333333     0.562926666667     0.008066666667     0          
H1       H      0.147133333333     0.573866666667     0.962266666667     0          
C4       C      0.134493333333     0.541556666667     0.087166666667     0          
H2       H      0.101033333333     0.536566666667     0.093766666667     0          
C5       C      0.155723333333     0.527186666667     0.156966666667     0          
C6       C      0.204093333333     0.533256666667     0.143266666667     0          
H3       H      0.219433333333     0.523866666667     0.189866666667     0          
C7       C      0.229933333333     0.552596666667     0.063166666667     0          
H4       H      0.262233333333     0.555166666667     0.054266666667     0          
C8       C      0.129283333333     0.507746666667     0.244766666667     0          
C9       C      0.076103333333     0.481456666667     0.249866666667     0          
H5       H      0.056733333333     0.475066666667     0.195966666667     0          
C10      C      0.050783333333     0.464356666667     0.332666666667     0          
C11      C      0.079313333333     0.473306666667     0.411166666667     0          
H6       H      0.062533333333     0.461066666667     0.467566666667     0          
C12      C      0.132363333333     0.500146666667     0.407366666667     0          
H7       H      0.151833333333     0.506966666667     0.461366666667     0          
C13      C      0.156823333333     0.516906666667     0.324966666667     0          
H8       H      0.193033333333     0.534966666667     0.322966666667     0          
C14      C      0.994153333333     0.440356666667     0.335766666667     0          
C15      C      0.963683333333     0.409826666667     0.266266666667     0          
H9       H      0.978633333333     0.401366666667     0.217666666667     0          
C16      C      0.911163333333     0.391266666667     0.266666666667     0          
H10      H      0.890633333333     0.369966666667     0.218666666667     0          
C17      C      0.888843333333     0.403356666667     0.335866666667     0          
C18      C      0.917903333333     0.429336666667     0.409466666667     0          
H11      H      0.902333333333     0.435166666667     0.460366666667     0          
C19      C      0.970073333333     0.447006666667     0.409566666667     0          
H12      H      0.989633333333     0.464066666667     0.461566666667     0          
C20      C      0.832833333333     0.385476666667     0.334466666667     0          
Zr1      Zr     0.317963333333     0.593456666667     0.763336666667     0          
O1       O      0.370503333333     0.606416666667     0.878676666667     0          
O2       O      0.424583333333     0.692056666667     0.882676666667     0          
O3       O      0.644793333333     0.451656666667     0.271186666667     0          
O4       O      0.597443333333     0.413776666667     0.396496666667     0          
O6       O      0.260723333333     0.609496666667     0.714666666667     0          
C1       C      0.407433333333     0.646976666667     0.911766666667     0          
C2       C      0.431663333333     0.640946666667     0.995666666667     0          
C3       C      0.437073333333     0.598576666667     0.008066666667     0          
H1       H      0.426133333333     0.573266666667     0.962266666667     0          
C4       C      0.458443333333     0.592936666667     0.087166666667     0          
H2       H      0.463433333333     0.564466666667     0.093766666667     0          
C5       C      0.472813333333     0.628536666667     0.156966666667     0          
C6       C      0.466743333333     0.670836666667     0.143266666667     0          
H3       H      0.476133333333     0.695566666667     0.189866666667     0          
C7       C      0.447403333333     0.677336666667     0.063166666667     0          
H4       H      0.444833333333     0.707066666667     0.054266666667     0          
C8       C      0.492253333333     0.621536666667     0.244766666667     0          
C9       C      0.518543333333     0.594646666667     0.249866666667     0          
H5       H      0.524933333333     0.581666666667     0.195966666667     0          
C10      C      0.535643333333     0.586426666667     0.332666666667     0          
C11      C      0.526693333333     0.606006666667     0.411166666667     0          
H6       H      0.538933333333     0.601466666667     0.467566666667     0          
C12      C      0.499853333333     0.632216666667     0.407366666667     0          
H7       H      0.493033333333     0.644866666667     0.461366666667     0          
C13      C      0.483093333333     0.639916666667     0.324966666667     0          
H8       H      0.465033333333     0.658066666667     0.322966666667     0          
C14      C      0.559643333333     0.553796666667     0.335766666667     0          
C15      C      0.590173333333     0.553856666667     0.266266666667     0          
H9       H      0.598633333333     0.577266666667     0.217666666667     0          
C16      C      0.608733333333     0.519896666667     0.266666666667     0          
H10      H      0.630033333333     0.520666666667     0.218666666667     0          
C17      C      0.596643333333     0.485486666667     0.335866666667     0          
C18      C      0.570663333333     0.488566666667     0.409466666667     0          
H11      H      0.564833333333     0.467166666667     0.460366666667     0          
C19      C      0.552993333333     0.523066666667     0.409566666667     0          
H12      H      0.535933333333     0.525566666667     0.461566666667     0          
C20      C      0.614523333333     0.447356666667     0.334466666667     0          
Zr1      Zr     0.260123333333     0.608826666667     0.569996666667     0          
O1       O      0.273083333333     0.569246666667     0.454656666667     0          
O2       O      0.358723333333     0.600806666667     0.450656666667     0          
O3       O      0.118323333333     0.140196666667     0.062146666667     0          
O4       O      0.080443333333     0.149666666667     0.936836666667     0          
O6       O      0.276163333333     0.682106666667     0.618666666667     0          
C1       C      0.313643333333     0.572876666667     0.421566666667     0          
C2       C      0.307613333333     0.542616666667     0.337666666667     0          
C3       C      0.265243333333     0.494836666667     0.325266666667     0          
H1       H      0.239933333333     0.480466666667     0.371066666667     0          
C4       C      0.259603333333     0.467826666667     0.246166666667     0          
H2       H      0.231133333333     0.434366666667     0.239566666667     0          
C5       C      0.295203333333     0.489056666667     0.176366666667     0          
C6       C      0.337503333333     0.537426666667     0.190066666667     0          
H3       H      0.362233333333     0.552766666667     0.143466666667     0          
C7       C      0.344003333333     0.563266666667     0.270166666667     0          
H4       H      0.373733333333     0.595566666667     0.279066666667     0          
C8       C      0.288203333333     0.462616666667     0.088566666667     0          
C9       C      0.261313333333     0.409436666667     0.083466666667     0          
H5       H      0.248333333333     0.390066666667     0.137366666667     0          
C10      C      0.253093333333     0.384116666667     0.000666666667     0          
C11      C      0.272673333333     0.412646666667     0.922166666667     0          
H6       H      0.268133333333     0.395866666667     0.865766666667     0          
C12      C      0.298883333333     0.465696666667     0.925966666667     0          
H7       H      0.311533333333     0.485166666667     0.871966666667     0          
C13      C      0.306583333333     0.490156666667     0.008366666667     0          
H8       H      0.324733333333     0.526366666667     0.010366666667     0          
C14      C      0.220463333333     0.327486666667     0.997566666667     0          
C15      C      0.220523333333     0.297016666667     0.067066666667     0          
H9       H      0.243933333333     0.311966666667     0.115666666667     0          
C16      C      0.186563333333     0.244496666667     0.066666666667     0          
H10      H      0.187333333333     0.223966666667     0.114666666667     0          
C17      C      0.152153333333     0.222176666667     0.997466666667     0          
C18      C      0.155233333333     0.251236666667     0.923866666667     0          
H11      H      0.133833333333     0.235666666667     0.872966666667     0          
C19      C      0.189733333333     0.303406666667     0.923766666667     0          
H12      H      0.192233333333     0.322966666667     0.871766666667     0          
C20      C      0.114023333333     0.166166666667     0.998866666667     0          
O5       O      0.333333333333     0.666666666667     0.523566666667     0          
Zr1      Zr     0.391173333333     0.651296666667     0.569996666667     0          
O1       O      0.430753333333     0.703836666667     0.454656666667     0          
O2       O      0.399193333333     0.757916666667     0.450656666667     0          
O3       O      0.859803333333     0.978126666667     0.062146666667     0          
O4       O      0.850333333333     0.930776666667     0.936836666667     0          
O6       O      0.317893333333     0.594056666667     0.618666666667     0          
C1       C      0.427123333333     0.740766666667     0.421566666667     0          
C2       C      0.457383333333     0.764996666667     0.337666666667     0          
C3       C      0.505163333333     0.770406666667     0.325266666667     0          
H1       H      0.519533333333     0.759466666667     0.371066666667     0          
C4       C      0.532173333333     0.791776666667     0.246166666667     0          
H2       H      0.565633333333     0.796766666667     0.239566666667     0          
C5       C      0.510943333333     0.806146666667     0.176366666667     0          
C6       C      0.462573333333     0.800076666667     0.190066666667     0          
H3       H      0.447233333333     0.809466666667     0.143466666667     0          
C7       C      0.436733333333     0.780736666667     0.270166666667     0          
H4       H      0.404433333333     0.778166666667     0.279066666667     0          
C8       C      0.537383333333     0.825586666667     0.088566666667     0          
C9       C      0.590563333333     0.851876666667     0.083466666667     0          
H5       H      0.609933333333     0.858266666667     0.137366666667     0          
C10      C      0.615883333333     0.868976666667     0.000666666667     0          
C11      C      0.587353333333     0.860026666667     0.922166666667     0          
H6       H      0.604133333333     0.872266666667     0.865766666667     0          
C12      C      0.534303333333     0.833186666667     0.925966666667     0          
H7       H      0.514833333333     0.826366666667     0.871966666667     0          
C13      C      0.509843333333     0.816426666667     0.008366666667     0          
H8       H      0.473633333333     0.798366666667     0.010366666667     0          
C14      C      0.672513333333     0.892976666667     0.997566666667     0          
C15      C      0.702983333333     0.923506666667     0.067066666667     0          
H9       H      0.688033333333     0.931966666667     0.115666666667     0          
C16      C      0.755503333333     0.942066666667     0.066666666667     0          
H10      H      0.776033333333     0.963366666667     0.114666666667     0          
C17      C      0.777823333333     0.929976666667     0.997466666667     0          
C18      C      0.748763333333     0.903996666667     0.923866666667     0          
H11      H      0.764333333333     0.898166666667     0.872966666667     0          
C19      C      0.696593333333     0.886326666667     0.923766666667     0          
H12      H      0.677033333333     0.869266666667     0.871766666667     0          
C20      C      0.833833333333     0.947856666667     0.998866666667     0          
Zr1      Zr     0.348703333333     0.739876666667     0.569996666667     0          
O1       O      0.296163333333     0.726916666667     0.454656666667     0          
O2       O      0.242083333333     0.641276666667     0.450656666667     0          
O3       O      0.021873333333     0.881676666667     0.062146666667     0          
O4       O      0.069223333333     0.919556666667     0.936836666667     0          
O6       O      0.405943333333     0.723836666667     0.618666666667     0          
C1       C      0.259233333333     0.686356666667     0.421566666667     0          
C2       C      0.235003333333     0.692386666667     0.337666666667     0          
C3       C      0.229593333333     0.734756666667     0.325266666667     0          
H1       H      0.240533333333     0.760066666667     0.371066666667     0          
C4       C      0.208223333333     0.740396666667     0.246166666667     0          
H2       H      0.203233333333     0.768866666667     0.239566666667     0          
C5       C      0.193853333333     0.704796666667     0.176366666667     0          
C6       C      0.199923333333     0.662496666667     0.190066666667     0          
H3       H      0.190533333333     0.637766666667     0.143466666667     0          
C7       C      0.219263333333     0.655996666667     0.270166666667     0          
H4       H      0.221833333333     0.626266666667     0.279066666667     0          
C8       C      0.174413333333     0.711796666667     0.088566666667     0          
C9       C      0.148123333333     0.738686666667     0.083466666667     0          
H5       H      0.141733333333     0.751666666667     0.137366666667     0          
C10      C      0.131023333333     0.746906666667     0.000666666667     0          
C11      C      0.139973333333     0.727326666667     0.922166666667     0          
H6       H      0.127733333333     0.731866666667     0.865766666667     0          
C12      C      0.166813333333     0.701116666667     0.925966666667     0          
H7       H      0.173633333333     0.688466666667     0.871966666667     0          
C13      C      0.183573333333     0.693416666667     0.008366666667     0          
H8       H      0.201633333333     0.675266666667     0.010366666667     0          
C14      C      0.107023333333     0.779536666667     0.997566666667     0          
C15      C      0.076493333333     0.779476666667     0.067066666667     0          
H9       H      0.068033333333     0.756066666667     0.115666666667     0          
C16      C      0.057933333333     0.813436666667     0.066666666667     0          
H10      H      0.036633333333     0.812666666667     0.114666666667     0          
C17      C      0.070023333333     0.847846666667     0.997466666667     0          
C18      C      0.096003333333     0.844766666667     0.923866666667     0          
H11      H      0.101833333333     0.866166666667     0.872966666667     0          
C19      C      0.113673333333     0.810266666667     0.923766666667     0          
H12      H      0.130733333333     0.807766666667     0.871766666667     0          
C20      C      0.052143333333     0.885976666667     0.998866666667     0          


