data_BIKNOB

_audit_creation_method RASPA-1.0
_audit_creation_date 2020-4-3
_audit_author_name 'Rocio Bueno-Perez'

_cell_length_a    34.3618
_cell_length_b    34.3618
_cell_length_c    15.0065
_cell_angle_alpha 90
_cell_angle_beta  90
_cell_angle_gamma 120
_cell_volume      15344.8

_symmetry_cell_setting          trigonal
_symmetry_space_group_name_Hall 'P 1'
_symmetry_space_group_name_H-M  'P 1'
_symmetry_Int_Tables_number     1

_symmetry_equiv_pos_as_xyz 'x,y,z'

loop_
_atom_site_label
_atom_site_type_symbol
_atom_site_fract_x
_atom_site_fract_y
_atom_site_fract_z
_atom_site_charge
Zr1      Zr     0.052120000000     0.063650000000     0.905240000000     0          
O1       O      0.125450000000     0.102440000000     0.940600000000     0          
O2       O      0.131990000000     0.066910000000     0.065300000000     0          
O3       O      0.610240000000     0.357590000000     0.546800000000     0          
O4       O      0.581120000000     0.281820000000     0.541700000000     0          
O6       O      0.988620000000     0.052060000000     0.952600000000     0          
C1       C      0.147190000000     0.098120000000     0.006300000000     0          
C2       C      0.195980000000     0.132750000000     0.016500000000     0          
C3       C      0.216900000000     0.164900000000     0.951100000000     0          
H1       H      0.200600000000     0.166000000000     0.901000000000     0          
C4       C      0.263000000000     0.196000000000     0.960300000000     0          
H2       H      0.277900000000     0.218200000000     0.915500000000     0          
C5       C      0.286920000000     0.194900000000     0.033500000000     0          
C6       C      0.264390000000     0.163200000000     0.099000000000     0          
H3       H      0.280300000000     0.162700000000     0.150500000000     0          
C7       C      0.219000000000     0.132100000000     0.091000000000     0          
H4       H      0.203900000000     0.110500000000     0.136500000000     0          
C8       C      0.336350000000     0.225300000000     0.039600000000     0          
C9       C      0.361950000000     0.234700000000     0.962800000000     0          
H5       H      0.347500000000     0.223500000000     0.907100000000     0          
C10      C      0.409440000000     0.260700000000     0.966500000000     0          
C11      C      0.431420000000     0.278000000000     0.050500000000     0          
C12      C      0.404500000000     0.269600000000     0.126600000000     0          
H6       H      0.418400000000     0.281700000000     0.182500000000     0          
C13      C      0.358400000000     0.244000000000     0.121400000000     0          
H7       H      0.341000000000     0.238800000000     0.173800000000     0          
C14      C      0.435120000000     0.268700000000     0.888800000000     0          
H8       H      0.420500000000     0.257600000000     0.833200000000     0          
C15      C      0.481500000000     0.292800000000     0.892400000000     0          
C16      C      0.503200000000     0.309900000000     0.975600000000     0          
H9       H      0.535100000000     0.326600000000     0.977700000000     0          
C17      C      0.479700000000     0.303100000000     0.051700000000     0          
H10      H      0.495100000000     0.314900000000     0.106300000000     0          
C18      C      0.507100000000     0.299900000000     0.809000000000     0          
C19      C      0.492790000000     0.266940000000     0.745800000000     0          
H11      H      0.465200000000     0.239700000000     0.754500000000     0          
C20      C      0.517820000000     0.272450000000     0.669000000000     0          
H12      H      0.507600000000     0.248800000000     0.626500000000     0          
C21      C      0.557470000000     0.312300000000     0.654500000000     0          
C22      C      0.572000000000     0.346100000000     0.715400000000     0          
H13      H      0.599000000000     0.373700000000     0.705600000000     0          
C23      C      0.546600000000     0.339600000000     0.792900000000     0          
H14      H      0.556700000000     0.363200000000     0.835400000000     0          
C24      C      0.585190000000     0.317650000000     0.574600000000     0          
O5       O      0.000000000000     0.000000000000     0.860500000000     0          
Zr1      Zr     0.936350000000     0.988470000000     0.905240000000     0          
O1       O      0.897560000000     0.023010000000     0.940600000000     0          
O2       O      0.933090000000     0.065080000000     0.065300000000     0          
O3       O      0.642410000000     0.252650000000     0.546800000000     0          
O4       O      0.718180000000     0.299300000000     0.541700000000     0          
O6       O      0.947940000000     0.936560000000     0.952600000000     0          
C1       C      0.901880000000     0.049070000000     0.006300000000     0          
C2       C      0.867250000000     0.063230000000     0.016500000000     0          
C3       C      0.835100000000     0.052000000000     0.951100000000     0          
H1       H      0.834000000000     0.034600000000     0.901000000000     0          
C4       C      0.804000000000     0.067000000000     0.960300000000     0          
H2       H      0.781800000000     0.059700000000     0.915500000000     0          
C5       C      0.805100000000     0.092020000000     0.033500000000     0          
C6       C      0.836800000000     0.101190000000     0.099000000000     0          
H3       H      0.837300000000     0.117600000000     0.150500000000     0          
C7       C      0.867900000000     0.086900000000     0.091000000000     0          
H4       H      0.889500000000     0.093400000000     0.136500000000     0          
C8       C      0.774700000000     0.111050000000     0.039600000000     0          
C9       C      0.765300000000     0.127250000000     0.962800000000     0          
H5       H      0.776500000000     0.124000000000     0.907100000000     0          
C10      C      0.739300000000     0.148740000000     0.966500000000     0          
C11      C      0.722000000000     0.153420000000     0.050500000000     0          
C12      C      0.730400000000     0.134900000000     0.126600000000     0          
H6       H      0.718300000000     0.136700000000     0.182500000000     0          
C13      C      0.756000000000     0.114400000000     0.121400000000     0          
H7       H      0.761200000000     0.102200000000     0.173800000000     0          
C14      C      0.731300000000     0.166420000000     0.888800000000     0          
H8       H      0.742400000000     0.162900000000     0.833200000000     0          
C15      C      0.707200000000     0.188700000000     0.892400000000     0          
C16      C      0.690100000000     0.193300000000     0.975600000000     0          
H9       H      0.673400000000     0.208500000000     0.977700000000     0          
C17      C      0.696900000000     0.176600000000     0.051700000000     0          
H10      H      0.685100000000     0.180200000000     0.106300000000     0          
C18      C      0.700100000000     0.207200000000     0.809000000000     0          
C19      C      0.733060000000     0.225850000000     0.745800000000     0          
H11      H      0.760300000000     0.225500000000     0.754500000000     0          
C20      C      0.727550000000     0.245370000000     0.669000000000     0          
H12      H      0.751200000000     0.258800000000     0.626500000000     0          
C21      C      0.687700000000     0.245170000000     0.654500000000     0          
C22      C      0.653900000000     0.225900000000     0.715400000000     0          
H13      H      0.626300000000     0.225300000000     0.705600000000     0          
C23      C      0.660400000000     0.207000000000     0.792900000000     0          
H14      H      0.636800000000     0.193500000000     0.835400000000     0          
C24      C      0.682350000000     0.267540000000     0.574600000000     0          
Zr1      Zr     0.011530000000     0.947880000000     0.905240000000     0          
O1       O      0.976990000000     0.874550000000     0.940600000000     0          
O2       O      0.934920000000     0.868010000000     0.065300000000     0          
O3       O      0.747350000000     0.389760000000     0.546800000000     0          
O4       O      0.700700000000     0.418880000000     0.541700000000     0          
O6       O      0.063440000000     0.011380000000     0.952600000000     0          
C1       C      0.950930000000     0.852810000000     0.006300000000     0          
C2       C      0.936770000000     0.804020000000     0.016500000000     0          
C3       C      0.948000000000     0.783100000000     0.951100000000     0          
H1       H      0.965400000000     0.799400000000     0.901000000000     0          
C4       C      0.933000000000     0.737000000000     0.960300000000     0          
H2       H      0.940300000000     0.722100000000     0.915500000000     0          
C5       C      0.907980000000     0.713080000000     0.033500000000     0          
C6       C      0.898810000000     0.735610000000     0.099000000000     0          
H3       H      0.882400000000     0.719700000000     0.150500000000     0          
C7       C      0.913100000000     0.781000000000     0.091000000000     0          
H4       H      0.906600000000     0.796100000000     0.136500000000     0          
C8       C      0.888950000000     0.663650000000     0.039600000000     0          
C9       C      0.872750000000     0.638050000000     0.962800000000     0          
H5       H      0.876000000000     0.652500000000     0.907100000000     0          
C10      C      0.851260000000     0.590560000000     0.966500000000     0          
C11      C      0.846580000000     0.568580000000     0.050500000000     0          
C12      C      0.865100000000     0.595500000000     0.126600000000     0          
H6       H      0.863300000000     0.581600000000     0.182500000000     0          
C13      C      0.885600000000     0.641600000000     0.121400000000     0          
H7       H      0.897800000000     0.659000000000     0.173800000000     0          
C14      C      0.833580000000     0.564880000000     0.888800000000     0          
H8       H      0.837100000000     0.579500000000     0.833200000000     0          
C15      C      0.811300000000     0.518500000000     0.892400000000     0          
C16      C      0.806700000000     0.496800000000     0.975600000000     0          
H9       H      0.791500000000     0.464900000000     0.977700000000     0          
C17      C      0.823400000000     0.520300000000     0.051700000000     0          
H10      H      0.819800000000     0.504900000000     0.106300000000     0          
C18      C      0.792800000000     0.492900000000     0.809000000000     0          
C19      C      0.774150000000     0.507210000000     0.745800000000     0          
H11      H      0.774500000000     0.534800000000     0.754500000000     0          
C20      C      0.754630000000     0.482180000000     0.669000000000     0          
H12      H      0.741200000000     0.492400000000     0.626500000000     0          
C21      C      0.754830000000     0.442530000000     0.654500000000     0          
C22      C      0.774100000000     0.428000000000     0.715400000000     0          
H13      H      0.774700000000     0.401000000000     0.705600000000     0          
C23      C      0.793000000000     0.453400000000     0.792900000000     0          
H14      H      0.806500000000     0.443300000000     0.835400000000     0          
C24      C      0.732460000000     0.414810000000     0.574600000000     0          
Zr1      Zr     0.947880000000     0.936350000000     0.094760000000     0          
O1       O      0.874550000000     0.897560000000     0.059400000000     0          
O2       O      0.868010000000     0.933090000000     0.934700000000     0          
O3       O      0.389760000000     0.642410000000     0.453200000000     0          
O4       O      0.418880000000     0.718180000000     0.458300000000     0          
O6       O      0.011380000000     0.947940000000     0.047400000000     0          
C1       C      0.852810000000     0.901880000000     0.993700000000     0          
C2       C      0.804020000000     0.867250000000     0.983500000000     0          
C3       C      0.783100000000     0.835100000000     0.048900000000     0          
H1       H      0.799400000000     0.834000000000     0.099000000000     0          
C4       C      0.737000000000     0.804000000000     0.039700000000     0          
H2       H      0.722100000000     0.781800000000     0.084500000000     0          
C5       C      0.713080000000     0.805100000000     0.966500000000     0          
C6       C      0.735610000000     0.836800000000     0.901000000000     0          
H3       H      0.719700000000     0.837300000000     0.849500000000     0          
C7       C      0.781000000000     0.867900000000     0.909000000000     0          
H4       H      0.796100000000     0.889500000000     0.863500000000     0          
C8       C      0.663650000000     0.774700000000     0.960400000000     0          
C9       C      0.638050000000     0.765300000000     0.037200000000     0          
H5       H      0.652500000000     0.776500000000     0.092900000000     0          
C10      C      0.590560000000     0.739300000000     0.033500000000     0          
C11      C      0.568580000000     0.722000000000     0.949500000000     0          
C12      C      0.595500000000     0.730400000000     0.873400000000     0          
H6       H      0.581600000000     0.718300000000     0.817500000000     0          
C13      C      0.641600000000     0.756000000000     0.878600000000     0          
H7       H      0.659000000000     0.761200000000     0.826200000000     0          
C14      C      0.564880000000     0.731300000000     0.111200000000     0          
H8       H      0.579500000000     0.742400000000     0.166800000000     0          
C15      C      0.518500000000     0.707200000000     0.107600000000     0          
C16      C      0.496800000000     0.690100000000     0.024400000000     0          
H9       H      0.464900000000     0.673400000000     0.022300000000     0          
C17      C      0.520300000000     0.696900000000     0.948300000000     0          
H10      H      0.504900000000     0.685100000000     0.893700000000     0          
C18      C      0.492900000000     0.700100000000     0.191000000000     0          
C19      C      0.507210000000     0.733060000000     0.254200000000     0          
H11      H      0.534800000000     0.760300000000     0.245500000000     0          
C20      C      0.482180000000     0.727550000000     0.331000000000     0          
H12      H      0.492400000000     0.751200000000     0.373500000000     0          
C21      C      0.442530000000     0.687700000000     0.345500000000     0          
C22      C      0.428000000000     0.653900000000     0.284600000000     0          
H13      H      0.401000000000     0.626300000000     0.294400000000     0          
C23      C      0.453400000000     0.660400000000     0.207100000000     0          
H14      H      0.443300000000     0.636800000000     0.164600000000     0          
C24      C      0.414810000000     0.682350000000     0.425400000000     0          
O5       O      0.000000000000     0.000000000000     0.139500000000     0          
Zr1      Zr     0.063650000000     0.011530000000     0.094760000000     0          
O1       O      0.102440000000     0.976990000000     0.059400000000     0          
O2       O      0.066910000000     0.934920000000     0.934700000000     0          
O3       O      0.357590000000     0.747350000000     0.453200000000     0          
O4       O      0.281820000000     0.700700000000     0.458300000000     0          
O6       O      0.052060000000     0.063440000000     0.047400000000     0          
C1       C      0.098120000000     0.950930000000     0.993700000000     0          
C2       C      0.132750000000     0.936770000000     0.983500000000     0          
C3       C      0.164900000000     0.948000000000     0.048900000000     0          
H1       H      0.166000000000     0.965400000000     0.099000000000     0          
C4       C      0.196000000000     0.933000000000     0.039700000000     0          
H2       H      0.218200000000     0.940300000000     0.084500000000     0          
C5       C      0.194900000000     0.907980000000     0.966500000000     0          
C6       C      0.163200000000     0.898810000000     0.901000000000     0          
H3       H      0.162700000000     0.882400000000     0.849500000000     0          
C7       C      0.132100000000     0.913100000000     0.909000000000     0          
H4       H      0.110500000000     0.906600000000     0.863500000000     0          
C8       C      0.225300000000     0.888950000000     0.960400000000     0          
C9       C      0.234700000000     0.872750000000     0.037200000000     0          
H5       H      0.223500000000     0.876000000000     0.092900000000     0          
C10      C      0.260700000000     0.851260000000     0.033500000000     0          
C11      C      0.278000000000     0.846580000000     0.949500000000     0          
C12      C      0.269600000000     0.865100000000     0.873400000000     0          
H6       H      0.281700000000     0.863300000000     0.817500000000     0          
C13      C      0.244000000000     0.885600000000     0.878600000000     0          
H7       H      0.238800000000     0.897800000000     0.826200000000     0          
C14      C      0.268700000000     0.833580000000     0.111200000000     0          
H8       H      0.257600000000     0.837100000000     0.166800000000     0          
C15      C      0.292800000000     0.811300000000     0.107600000000     0          
C16      C      0.309900000000     0.806700000000     0.024400000000     0          
H9       H      0.326600000000     0.791500000000     0.022300000000     0          
C17      C      0.303100000000     0.823400000000     0.948300000000     0          
H10      H      0.314900000000     0.819800000000     0.893700000000     0          
C18      C      0.299900000000     0.792800000000     0.191000000000     0          
C19      C      0.266940000000     0.774150000000     0.254200000000     0          
H11      H      0.239700000000     0.774500000000     0.245500000000     0          
C20      C      0.272450000000     0.754630000000     0.331000000000     0          
H12      H      0.248800000000     0.741200000000     0.373500000000     0          
C21      C      0.312300000000     0.754830000000     0.345500000000     0          
C22      C      0.346100000000     0.774100000000     0.284600000000     0          
H13      H      0.373700000000     0.774700000000     0.294400000000     0          
C23      C      0.339600000000     0.793000000000     0.207100000000     0          
H14      H      0.363200000000     0.806500000000     0.164600000000     0          
C24      C      0.317650000000     0.732460000000     0.425400000000     0          
Zr1      Zr     0.988470000000     0.052120000000     0.094760000000     0          
O1       O      0.023010000000     0.125450000000     0.059400000000     0          
O2       O      0.065080000000     0.131990000000     0.934700000000     0          
O3       O      0.252650000000     0.610240000000     0.453200000000     0          
O4       O      0.299300000000     0.581120000000     0.458300000000     0          
O6       O      0.936560000000     0.988620000000     0.047400000000     0          
C1       C      0.049070000000     0.147190000000     0.993700000000     0          
C2       C      0.063230000000     0.195980000000     0.983500000000     0          
C3       C      0.052000000000     0.216900000000     0.048900000000     0          
H1       H      0.034600000000     0.200600000000     0.099000000000     0          
C4       C      0.067000000000     0.263000000000     0.039700000000     0          
H2       H      0.059700000000     0.277900000000     0.084500000000     0          
C5       C      0.092020000000     0.286920000000     0.966500000000     0          
C6       C      0.101190000000     0.264390000000     0.901000000000     0          
H3       H      0.117600000000     0.280300000000     0.849500000000     0          
C7       C      0.086900000000     0.219000000000     0.909000000000     0          
H4       H      0.093400000000     0.203900000000     0.863500000000     0          
C8       C      0.111050000000     0.336350000000     0.960400000000     0          
C9       C      0.127250000000     0.361950000000     0.037200000000     0          
H5       H      0.124000000000     0.347500000000     0.092900000000     0          
C10      C      0.148740000000     0.409440000000     0.033500000000     0          
C11      C      0.153420000000     0.431420000000     0.949500000000     0          
C12      C      0.134900000000     0.404500000000     0.873400000000     0          
H6       H      0.136700000000     0.418400000000     0.817500000000     0          
C13      C      0.114400000000     0.358400000000     0.878600000000     0          
H7       H      0.102200000000     0.341000000000     0.826200000000     0          
C14      C      0.166420000000     0.435120000000     0.111200000000     0          
H8       H      0.162900000000     0.420500000000     0.166800000000     0          
C15      C      0.188700000000     0.481500000000     0.107600000000     0          
C16      C      0.193300000000     0.503200000000     0.024400000000     0          
H9       H      0.208500000000     0.535100000000     0.022300000000     0          
C17      C      0.176600000000     0.479700000000     0.948300000000     0          
H10      H      0.180200000000     0.495100000000     0.893700000000     0          
C18      C      0.207200000000     0.507100000000     0.191000000000     0          
C19      C      0.225850000000     0.492790000000     0.254200000000     0          
H11      H      0.225500000000     0.465200000000     0.245500000000     0          
C20      C      0.245370000000     0.517820000000     0.331000000000     0          
H12      H      0.258800000000     0.507600000000     0.373500000000     0          
C21      C      0.245170000000     0.557470000000     0.345500000000     0          
C22      C      0.225900000000     0.572000000000     0.284600000000     0          
H13      H      0.225300000000     0.599000000000     0.294400000000     0          
C23      C      0.207000000000     0.546600000000     0.207100000000     0          
H14      H      0.193500000000     0.556700000000     0.164600000000     0          
C24      C      0.267540000000     0.585190000000     0.425400000000     0          
Zr1      Zr     0.718786666667     0.396983333333     0.238573333333     0          
O1       O      0.792116666667     0.435773333333     0.273933333333     0          
O2       O      0.798656666667     0.400243333333     0.398633333333     0          
O3       O      0.276906666667     0.690923333333     0.880133333333     0          
O4       O      0.247786666667     0.615153333333     0.875033333333     0          
O6       O      0.655286666667     0.385393333333     0.285933333333     0          
C1       C      0.813856666667     0.431453333333     0.339633333333     0          
C2       C      0.862646666667     0.466083333333     0.349833333333     0          
C3       C      0.883566666667     0.498233333333     0.284433333333     0          
H1       H      0.867266666667     0.499333333333     0.234333333333     0          
C4       C      0.929666666667     0.529333333333     0.293633333333     0          
H2       H      0.944566666667     0.551533333333     0.248833333333     0          
C5       C      0.953586666667     0.528233333333     0.366833333333     0          
C6       C      0.931056666667     0.496533333333     0.432333333333     0          
H3       H      0.946966666667     0.496033333333     0.483833333333     0          
C7       C      0.885666666667     0.465433333333     0.424333333333     0          
H4       H      0.870566666667     0.443833333333     0.469833333333     0          
C8       C      0.003016666667     0.558633333333     0.372933333333     0          
C9       C      0.028616666667     0.568033333333     0.296133333333     0          
H5       H      0.014166666667     0.556833333333     0.240433333333     0          
C10      C      0.076106666667     0.594033333333     0.299833333333     0          
C11      C      0.098086666667     0.611333333333     0.383833333333     0          
C12      C      0.071166666667     0.602933333333     0.459933333333     0          
H6       H      0.085066666667     0.615033333333     0.515833333333     0          
C13      C      0.025066666667     0.577333333333     0.454733333333     0          
H7       H      0.007666666667     0.572133333333     0.507133333333     0          
C14      C      0.101786666667     0.602033333333     0.222133333333     0          
H8       H      0.087166666667     0.590933333333     0.166533333333     0          
C15      C      0.148166666667     0.626133333333     0.225733333333     0          
C16      C      0.169866666667     0.643233333333     0.308933333333     0          
H9       H      0.201766666667     0.659933333333     0.311033333333     0          
C17      C      0.146366666667     0.636433333333     0.385033333333     0          
H10      H      0.161766666667     0.648233333333     0.439633333333     0          
C18      C      0.173766666667     0.633233333333     0.142333333333     0          
C19      C      0.159456666667     0.600273333333     0.079133333333     0          
H11      H      0.131866666667     0.573033333333     0.087833333333     0          
C20      C      0.184486666667     0.605783333333     0.002333333333     0          
H12      H      0.174266666667     0.582133333333     0.959833333333     0          
C21      C      0.224136666667     0.645633333333     0.987833333333     0          
C22      C      0.238666666667     0.679433333333     0.048733333333     0          
H13      H      0.265666666667     0.707033333333     0.038933333333     0          
C23      C      0.213266666667     0.672933333333     0.126233333333     0          
H14      H      0.223366666667     0.696533333333     0.168733333333     0          
C24      C      0.251856666667     0.650983333333     0.907933333333     0          
O5       O      0.666666666667     0.333333333333     0.193833333333     0          
Zr1      Zr     0.603016666667     0.321803333333     0.238573333333     0          
O1       O      0.564226666667     0.356343333333     0.273933333333     0          
O2       O      0.599756666667     0.398413333333     0.398633333333     0          
O3       O      0.309076666667     0.585983333333     0.880133333333     0          
O4       O      0.384846666667     0.632633333333     0.875033333333     0          
O6       O      0.614606666667     0.269893333333     0.285933333333     0          
C1       C      0.568546666667     0.382403333333     0.339633333333     0          
C2       C      0.533916666667     0.396563333333     0.349833333333     0          
C3       C      0.501766666667     0.385333333333     0.284433333333     0          
H1       H      0.500666666667     0.367933333333     0.234333333333     0          
C4       C      0.470666666667     0.400333333333     0.293633333333     0          
H2       H      0.448466666667     0.393033333333     0.248833333333     0          
C5       C      0.471766666667     0.425353333333     0.366833333333     0          
C6       C      0.503466666667     0.434523333333     0.432333333333     0          
H3       H      0.503966666667     0.450933333333     0.483833333333     0          
C7       C      0.534566666667     0.420233333333     0.424333333333     0          
H4       H      0.556166666667     0.426733333333     0.469833333333     0          
C8       C      0.441366666667     0.444383333333     0.372933333333     0          
C9       C      0.431966666667     0.460583333333     0.296133333333     0          
H5       H      0.443166666667     0.457333333333     0.240433333333     0          
C10      C      0.405966666667     0.482073333333     0.299833333333     0          
C11      C      0.388666666667     0.486753333333     0.383833333333     0          
C12      C      0.397066666667     0.468233333333     0.459933333333     0          
H6       H      0.384966666667     0.470033333333     0.515833333333     0          
C13      C      0.422666666667     0.447733333333     0.454733333333     0          
H7       H      0.427866666667     0.435533333333     0.507133333333     0          
C14      C      0.397966666667     0.499753333333     0.222133333333     0          
H8       H      0.409066666667     0.496233333333     0.166533333333     0          
C15      C      0.373866666667     0.522033333333     0.225733333333     0          
C16      C      0.356766666667     0.526633333333     0.308933333333     0          
H9       H      0.340066666667     0.541833333333     0.311033333333     0          
C17      C      0.363566666667     0.509933333333     0.385033333333     0          
H10      H      0.351766666667     0.513533333333     0.439633333333     0          
C18      C      0.366766666667     0.540533333333     0.142333333333     0          
C19      C      0.399726666667     0.559183333333     0.079133333333     0          
H11      H      0.426966666667     0.558833333333     0.087833333333     0          
C20      C      0.394216666667     0.578703333333     0.002333333333     0          
H12      H      0.417866666667     0.592133333333     0.959833333333     0          
C21      C      0.354366666667     0.578503333333     0.987833333333     0          
C22      C      0.320566666667     0.559233333333     0.048733333333     0          
H13      H      0.292966666667     0.558633333333     0.038933333333     0          
C23      C      0.327066666667     0.540333333333     0.126233333333     0          
H14      H      0.303466666667     0.526833333333     0.168733333333     0          
C24      C      0.349016666667     0.600873333333     0.907933333333     0          
Zr1      Zr     0.678196666667     0.281213333333     0.238573333333     0          
O1       O      0.643656666667     0.207883333333     0.273933333333     0          
O2       O      0.601586666667     0.201343333333     0.398633333333     0          
O3       O      0.414016666667     0.723093333333     0.880133333333     0          
O4       O      0.367366666667     0.752213333333     0.875033333333     0          
O6       O      0.730106666667     0.344713333333     0.285933333333     0          
C1       C      0.617596666667     0.186143333333     0.339633333333     0          
C2       C      0.603436666667     0.137353333333     0.349833333333     0          
C3       C      0.614666666667     0.116433333333     0.284433333333     0          
H1       H      0.632066666667     0.132733333333     0.234333333333     0          
C4       C      0.599666666667     0.070333333333     0.293633333333     0          
H2       H      0.606966666667     0.055433333333     0.248833333333     0          
C5       C      0.574646666667     0.046413333333     0.366833333333     0          
C6       C      0.565476666667     0.068943333333     0.432333333333     0          
H3       H      0.549066666667     0.053033333333     0.483833333333     0          
C7       C      0.579766666667     0.114333333333     0.424333333333     0          
H4       H      0.573266666667     0.129433333333     0.469833333333     0          
C8       C      0.555616666667     0.996983333333     0.372933333333     0          
C9       C      0.539416666667     0.971383333333     0.296133333333     0          
H5       H      0.542666666667     0.985833333333     0.240433333333     0          
C10      C      0.517926666667     0.923893333333     0.299833333333     0          
C11      C      0.513246666667     0.901913333333     0.383833333333     0          
C12      C      0.531766666667     0.928833333333     0.459933333333     0          
H6       H      0.529966666667     0.914933333333     0.515833333333     0          
C13      C      0.552266666667     0.974933333333     0.454733333333     0          
H7       H      0.564466666667     0.992333333333     0.507133333333     0          
C14      C      0.500246666667     0.898213333333     0.222133333333     0          
H8       H      0.503766666667     0.912833333333     0.166533333333     0          
C15      C      0.477966666667     0.851833333333     0.225733333333     0          
C16      C      0.473366666667     0.830133333333     0.308933333333     0          
H9       H      0.458166666667     0.798233333333     0.311033333333     0          
C17      C      0.490066666667     0.853633333333     0.385033333333     0          
H10      H      0.486466666667     0.838233333333     0.439633333333     0          
C18      C      0.459466666667     0.826233333333     0.142333333333     0          
C19      C      0.440816666667     0.840543333333     0.079133333333     0          
H11      H      0.441166666667     0.868133333333     0.087833333333     0          
C20      C      0.421296666667     0.815513333333     0.002333333333     0          
H12      H      0.407866666667     0.825733333333     0.959833333333     0          
C21      C      0.421496666667     0.775863333333     0.987833333333     0          
C22      C      0.440766666667     0.761333333333     0.048733333333     0          
H13      H      0.441366666667     0.734333333333     0.038933333333     0          
C23      C      0.459666666667     0.786733333333     0.126233333333     0          
H14      H      0.473166666667     0.776633333333     0.168733333333     0          
C24      C      0.399126666667     0.748143333333     0.907933333333     0          
Zr1      Zr     0.614546666667     0.269683333333     0.428093333333     0          
O1       O      0.541216666667     0.230893333333     0.392733333333     0          
O2       O      0.534676666667     0.266423333333     0.268033333333     0          
O3       O      0.056426666667     0.975743333333     0.786533333333     0          
O4       O      0.085546666667     0.051513333333     0.791633333333     0          
O6       O      0.678046666667     0.281273333333     0.380733333333     0          
C1       C      0.519476666667     0.235213333333     0.327033333333     0          
C2       C      0.470686666667     0.200583333333     0.316833333333     0          
C3       C      0.449766666667     0.168433333333     0.382233333333     0          
H1       H      0.466066666667     0.167333333333     0.432333333333     0          
C4       C      0.403666666667     0.137333333333     0.373033333333     0          
H2       H      0.388766666667     0.115133333333     0.417833333333     0          
C5       C      0.379746666667     0.138433333333     0.299833333333     0          
C6       C      0.402276666667     0.170133333333     0.234333333333     0          
H3       H      0.386366666667     0.170633333333     0.182833333333     0          
C7       C      0.447666666667     0.201233333333     0.242333333333     0          
H4       H      0.462766666667     0.222833333333     0.196833333333     0          
C8       C      0.330316666667     0.108033333333     0.293733333333     0          
C9       C      0.304716666667     0.098633333333     0.370533333333     0          
H5       H      0.319166666667     0.109833333333     0.426233333333     0          
C10      C      0.257226666667     0.072633333333     0.366833333333     0          
C11      C      0.235246666667     0.055333333333     0.282833333333     0          
C12      C      0.262166666667     0.063733333333     0.206733333333     0          
H6       H      0.248266666667     0.051633333333     0.150833333333     0          
C13      C      0.308266666667     0.089333333333     0.211933333333     0          
H7       H      0.325666666667     0.094533333333     0.159533333333     0          
C14      C      0.231546666667     0.064633333333     0.444533333333     0          
H8       H      0.246166666667     0.075733333333     0.500133333333     0          
C15      C      0.185166666667     0.040533333333     0.440933333333     0          
C16      C      0.163466666667     0.023433333333     0.357733333333     0          
H9       H      0.131566666667     0.006733333333     0.355633333333     0          
C17      C      0.186966666667     0.030233333333     0.281633333333     0          
H10      H      0.171566666667     0.018433333333     0.227033333333     0          
C18      C      0.159566666667     0.033433333333     0.524333333333     0          
C19      C      0.173876666667     0.066393333333     0.587533333333     0          
H11      H      0.201466666667     0.093633333333     0.578833333333     0          
C20      C      0.148846666667     0.060883333333     0.664333333333     0          
H12      H      0.159066666667     0.084533333333     0.706833333333     0          
C21      C      0.109196666667     0.021033333333     0.678833333333     0          
C22      C      0.094666666667     0.987233333333     0.617933333333     0          
H13      H      0.067666666667     0.959633333333     0.627733333333     0          
C23      C      0.120066666667     0.993733333333     0.540433333333     0          
H14      H      0.109966666667     0.970133333333     0.497933333333     0          
C24      C      0.081476666667     0.015683333333     0.758733333333     0          
O5       O      0.666666666667     0.333333333333     0.472833333333     0          
Zr1      Zr     0.730316666667     0.344863333333     0.428093333333     0          
O1       O      0.769106666667     0.310323333333     0.392733333333     0          
O2       O      0.733576666667     0.268253333333     0.268033333333     0          
O3       O      0.024256666667     0.080683333333     0.786533333333     0          
O4       O      0.948486666667     0.034033333333     0.791633333333     0          
O6       O      0.718726666667     0.396773333333     0.380733333333     0          
C1       C      0.764786666667     0.284263333333     0.327033333333     0          
C2       C      0.799416666667     0.270103333333     0.316833333333     0          
C3       C      0.831566666667     0.281333333333     0.382233333333     0          
H1       H      0.832666666667     0.298733333333     0.432333333333     0          
C4       C      0.862666666667     0.266333333333     0.373033333333     0          
H2       H      0.884866666667     0.273633333333     0.417833333333     0          
C5       C      0.861566666667     0.241313333333     0.299833333333     0          
C6       C      0.829866666667     0.232143333333     0.234333333333     0          
H3       H      0.829366666667     0.215733333333     0.182833333333     0          
C7       C      0.798766666667     0.246433333333     0.242333333333     0          
H4       H      0.777166666667     0.239933333333     0.196833333333     0          
C8       C      0.891966666667     0.222283333333     0.293733333333     0          
C9       C      0.901366666667     0.206083333333     0.370533333333     0          
H5       H      0.890166666667     0.209333333333     0.426233333333     0          
C10      C      0.927366666667     0.184593333333     0.366833333333     0          
C11      C      0.944666666667     0.179913333333     0.282833333333     0          
C12      C      0.936266666667     0.198433333333     0.206733333333     0          
H6       H      0.948366666667     0.196633333333     0.150833333333     0          
C13      C      0.910666666667     0.218933333333     0.211933333333     0          
H7       H      0.905466666667     0.231133333333     0.159533333333     0          
C14      C      0.935366666667     0.166913333333     0.444533333333     0          
H8       H      0.924266666667     0.170433333333     0.500133333333     0          
C15      C      0.959466666667     0.144633333333     0.440933333333     0          
C16      C      0.976566666667     0.140033333333     0.357733333333     0          
H9       H      0.993266666667     0.124833333333     0.355633333333     0          
C17      C      0.969766666667     0.156733333333     0.281633333333     0          
H10      H      0.981566666667     0.153133333333     0.227033333333     0          
C18      C      0.966566666667     0.126133333333     0.524333333333     0          
C19      C      0.933606666667     0.107483333333     0.587533333333     0          
H11      H      0.906366666667     0.107833333333     0.578833333333     0          
C20      C      0.939116666667     0.087963333333     0.664333333333     0          
H12      H      0.915466666667     0.074533333333     0.706833333333     0          
C21      C      0.978966666667     0.088163333333     0.678833333333     0          
C22      C      0.012766666667     0.107433333333     0.617933333333     0          
H13      H      0.040366666667     0.108033333333     0.627733333333     0          
C23      C      0.006266666667     0.126333333333     0.540433333333     0          
H14      H      0.029866666667     0.139833333333     0.497933333333     0          
C24      C      0.984316666667     0.065793333333     0.758733333333     0          
Zr1      Zr     0.655136666667     0.385453333333     0.428093333333     0          
O1       O      0.689676666667     0.458783333333     0.392733333333     0          
O2       O      0.731746666667     0.465323333333     0.268033333333     0          
O3       O      0.919316666667     0.943573333333     0.786533333333     0          
O4       O      0.965966666667     0.914453333333     0.791633333333     0          
O6       O      0.603226666667     0.321953333333     0.380733333333     0          
C1       C      0.715736666667     0.480523333333     0.327033333333     0          
C2       C      0.729896666667     0.529313333333     0.316833333333     0          
C3       C      0.718666666667     0.550233333333     0.382233333333     0          
H1       H      0.701266666667     0.533933333333     0.432333333333     0          
C4       C      0.733666666667     0.596333333333     0.373033333333     0          
H2       H      0.726366666667     0.611233333333     0.417833333333     0          
C5       C      0.758686666667     0.620253333333     0.299833333333     0          
C6       C      0.767856666667     0.597723333333     0.234333333333     0          
H3       H      0.784266666667     0.613633333333     0.182833333333     0          
C7       C      0.753566666667     0.552333333333     0.242333333333     0          
H4       H      0.760066666667     0.537233333333     0.196833333333     0          
C8       C      0.777716666667     0.669683333333     0.293733333333     0          
C9       C      0.793916666667     0.695283333333     0.370533333333     0          
H5       H      0.790666666667     0.680833333333     0.426233333333     0          
C10      C      0.815406666667     0.742773333333     0.366833333333     0          
C11      C      0.820086666667     0.764753333333     0.282833333333     0          
C12      C      0.801566666667     0.737833333333     0.206733333333     0          
H6       H      0.803366666667     0.751733333333     0.150833333333     0          
C13      C      0.781066666667     0.691733333333     0.211933333333     0          
H7       H      0.768866666667     0.674333333333     0.159533333333     0          
C14      C      0.833086666667     0.768453333333     0.444533333333     0          
H8       H      0.829566666667     0.753833333333     0.500133333333     0          
C15      C      0.855366666667     0.814833333333     0.440933333333     0          
C16      C      0.859966666667     0.836533333333     0.357733333333     0          
H9       H      0.875166666667     0.868433333333     0.355633333333     0          
C17      C      0.843266666667     0.813033333333     0.281633333333     0          
H10      H      0.846866666667     0.828433333333     0.227033333333     0          
C18      C      0.873866666667     0.840433333333     0.524333333333     0          
C19      C      0.892516666667     0.826123333333     0.587533333333     0          
H11      H      0.892166666667     0.798533333333     0.578833333333     0          
C20      C      0.912036666667     0.851153333333     0.664333333333     0          
H12      H      0.925466666667     0.840933333333     0.706833333333     0          
C21      C      0.911836666667     0.890803333333     0.678833333333     0          
C22      C      0.892566666667     0.905333333333     0.617933333333     0          
H13      H      0.891966666667     0.932333333333     0.627733333333     0          
C23      C      0.873666666667     0.879933333333     0.540433333333     0          
H14      H      0.860166666667     0.890033333333     0.497933333333     0          
C24      C      0.934206666667     0.918523333333     0.758733333333     0          
Zr1      Zr     0.385453333333     0.730316666667     0.571906666667     0          
O1       O      0.458783333333     0.769106666667     0.607266666667     0          
O2       O      0.465323333333     0.733576666667     0.731966666667     0          
O3       O      0.943573333333     0.024256666667     0.213466666667     0          
O4       O      0.914453333333     0.948486666667     0.208366666667     0          
O6       O      0.321953333333     0.718726666667     0.619266666667     0          
C1       C      0.480523333333     0.764786666667     0.672966666667     0          
C2       C      0.529313333333     0.799416666667     0.683166666667     0          
C3       C      0.550233333333     0.831566666667     0.617766666667     0          
H1       H      0.533933333333     0.832666666667     0.567666666667     0          
C4       C      0.596333333333     0.862666666667     0.626966666667     0          
H2       H      0.611233333333     0.884866666667     0.582166666667     0          
C5       C      0.620253333333     0.861566666667     0.700166666667     0          
C6       C      0.597723333333     0.829866666667     0.765666666667     0          
H3       H      0.613633333333     0.829366666667     0.817166666667     0          
C7       C      0.552333333333     0.798766666667     0.757666666667     0          
H4       H      0.537233333333     0.777166666667     0.803166666667     0          
C8       C      0.669683333333     0.891966666667     0.706266666667     0          
C9       C      0.695283333333     0.901366666667     0.629466666667     0          
H5       H      0.680833333333     0.890166666667     0.573766666667     0          
C10      C      0.742773333333     0.927366666667     0.633166666667     0          
C11      C      0.764753333333     0.944666666667     0.717166666667     0          
C12      C      0.737833333333     0.936266666667     0.793266666667     0          
H6       H      0.751733333333     0.948366666667     0.849166666667     0          
C13      C      0.691733333333     0.910666666667     0.788066666667     0          
H7       H      0.674333333333     0.905466666667     0.840466666667     0          
C14      C      0.768453333333     0.935366666667     0.555466666667     0          
H8       H      0.753833333333     0.924266666667     0.499866666667     0          
C15      C      0.814833333333     0.959466666667     0.559066666667     0          
C16      C      0.836533333333     0.976566666667     0.642266666667     0          
H9       H      0.868433333333     0.993266666667     0.644366666667     0          
C17      C      0.813033333333     0.969766666667     0.718366666667     0          
H10      H      0.828433333333     0.981566666667     0.772966666667     0          
C18      C      0.840433333333     0.966566666667     0.475666666667     0          
C19      C      0.826123333333     0.933606666667     0.412466666667     0          
H11      H      0.798533333333     0.906366666667     0.421166666667     0          
C20      C      0.851153333333     0.939116666667     0.335666666667     0          
H12      H      0.840933333333     0.915466666667     0.293166666667     0          
C21      C      0.890803333333     0.978966666667     0.321166666667     0          
C22      C      0.905333333333     0.012766666667     0.382066666667     0          
H13      H      0.932333333333     0.040366666667     0.372266666667     0          
C23      C      0.879933333333     0.006266666667     0.459566666667     0          
H14      H      0.890033333333     0.029866666667     0.502066666667     0          
C24      C      0.918523333333     0.984316666667     0.241266666667     0          
O5       O      0.333333333333     0.666666666667     0.527166666667     0          
Zr1      Zr     0.269683333333     0.655136666667     0.571906666667     0          
O1       O      0.230893333333     0.689676666667     0.607266666667     0          
O2       O      0.266423333333     0.731746666667     0.731966666667     0          
O3       O      0.975743333333     0.919316666667     0.213466666667     0          
O4       O      0.051513333333     0.965966666667     0.208366666667     0          
O6       O      0.281273333333     0.603226666667     0.619266666667     0          
C1       C      0.235213333333     0.715736666667     0.672966666667     0          
C2       C      0.200583333333     0.729896666667     0.683166666667     0          
C3       C      0.168433333333     0.718666666667     0.617766666667     0          
H1       H      0.167333333333     0.701266666667     0.567666666667     0          
C4       C      0.137333333333     0.733666666667     0.626966666667     0          
H2       H      0.115133333333     0.726366666667     0.582166666667     0          
C5       C      0.138433333333     0.758686666667     0.700166666667     0          
C6       C      0.170133333333     0.767856666667     0.765666666667     0          
H3       H      0.170633333333     0.784266666667     0.817166666667     0          
C7       C      0.201233333333     0.753566666667     0.757666666667     0          
H4       H      0.222833333333     0.760066666667     0.803166666667     0          
C8       C      0.108033333333     0.777716666667     0.706266666667     0          
C9       C      0.098633333333     0.793916666667     0.629466666667     0          
H5       H      0.109833333333     0.790666666667     0.573766666667     0          
C10      C      0.072633333333     0.815406666667     0.633166666667     0          
C11      C      0.055333333333     0.820086666667     0.717166666667     0          
C12      C      0.063733333333     0.801566666667     0.793266666667     0          
H6       H      0.051633333333     0.803366666667     0.849166666667     0          
C13      C      0.089333333333     0.781066666667     0.788066666667     0          
H7       H      0.094533333333     0.768866666667     0.840466666667     0          
C14      C      0.064633333333     0.833086666667     0.555466666667     0          
H8       H      0.075733333333     0.829566666667     0.499866666667     0          
C15      C      0.040533333333     0.855366666667     0.559066666667     0          
C16      C      0.023433333333     0.859966666667     0.642266666667     0          
H9       H      0.006733333333     0.875166666667     0.644366666667     0          
C17      C      0.030233333333     0.843266666667     0.718366666667     0          
H10      H      0.018433333333     0.846866666667     0.772966666667     0          
C18      C      0.033433333333     0.873866666667     0.475666666667     0          
C19      C      0.066393333333     0.892516666667     0.412466666667     0          
H11      H      0.093633333333     0.892166666667     0.421166666667     0          
C20      C      0.060883333333     0.912036666667     0.335666666667     0          
H12      H      0.084533333333     0.925466666667     0.293166666667     0          
C21      C      0.021033333333     0.911836666667     0.321166666667     0          
C22      C      0.987233333333     0.892566666667     0.382066666667     0          
H13      H      0.959633333333     0.891966666667     0.372266666667     0          
C23      C      0.993733333333     0.873666666667     0.459566666667     0          
H14      H      0.970133333333     0.860166666667     0.502066666667     0          
C24      C      0.015683333333     0.934206666667     0.241266666667     0          
Zr1      Zr     0.344863333333     0.614546666667     0.571906666667     0          
O1       O      0.310323333333     0.541216666667     0.607266666667     0          
O2       O      0.268253333333     0.534676666667     0.731966666667     0          
O3       O      0.080683333333     0.056426666667     0.213466666667     0          
O4       O      0.034033333333     0.085546666667     0.208366666667     0          
O6       O      0.396773333333     0.678046666667     0.619266666667     0          
C1       C      0.284263333333     0.519476666667     0.672966666667     0          
C2       C      0.270103333333     0.470686666667     0.683166666667     0          
C3       C      0.281333333333     0.449766666667     0.617766666667     0          
H1       H      0.298733333333     0.466066666667     0.567666666667     0          
C4       C      0.266333333333     0.403666666667     0.626966666667     0          
H2       H      0.273633333333     0.388766666667     0.582166666667     0          
C5       C      0.241313333333     0.379746666667     0.700166666667     0          
C6       C      0.232143333333     0.402276666667     0.765666666667     0          
H3       H      0.215733333333     0.386366666667     0.817166666667     0          
C7       C      0.246433333333     0.447666666667     0.757666666667     0          
H4       H      0.239933333333     0.462766666667     0.803166666667     0          
C8       C      0.222283333333     0.330316666667     0.706266666667     0          
C9       C      0.206083333333     0.304716666667     0.629466666667     0          
H5       H      0.209333333333     0.319166666667     0.573766666667     0          
C10      C      0.184593333333     0.257226666667     0.633166666667     0          
C11      C      0.179913333333     0.235246666667     0.717166666667     0          
C12      C      0.198433333333     0.262166666667     0.793266666667     0          
H6       H      0.196633333333     0.248266666667     0.849166666667     0          
C13      C      0.218933333333     0.308266666667     0.788066666667     0          
H7       H      0.231133333333     0.325666666667     0.840466666667     0          
C14      C      0.166913333333     0.231546666667     0.555466666667     0          
H8       H      0.170433333333     0.246166666667     0.499866666667     0          
C15      C      0.144633333333     0.185166666667     0.559066666667     0          
C16      C      0.140033333333     0.163466666667     0.642266666667     0          
H9       H      0.124833333333     0.131566666667     0.644366666667     0          
C17      C      0.156733333333     0.186966666667     0.718366666667     0          
H10      H      0.153133333333     0.171566666667     0.772966666667     0          
C18      C      0.126133333333     0.159566666667     0.475666666667     0          
C19      C      0.107483333333     0.173876666667     0.412466666667     0          
H11      H      0.107833333333     0.201466666667     0.421166666667     0          
C20      C      0.087963333333     0.148846666667     0.335666666667     0          
H12      H      0.074533333333     0.159066666667     0.293166666667     0          
C21      C      0.088163333333     0.109196666667     0.321166666667     0          
C22      C      0.107433333333     0.094666666667     0.382066666667     0          
H13      H      0.108033333333     0.067666666667     0.372266666667     0          
C23      C      0.126333333333     0.120066666667     0.459566666667     0          
H14      H      0.139833333333     0.109966666667     0.502066666667     0          
C24      C      0.065793333333     0.081476666667     0.241266666667     0          
Zr1      Zr     0.281213333333     0.603016666667     0.761426666667     0          
O1       O      0.207883333333     0.564226666667     0.726066666667     0          
O2       O      0.201343333333     0.599756666667     0.601366666667     0          
O3       O      0.723093333333     0.309076666667     0.119866666667     0          
O4       O      0.752213333333     0.384846666667     0.124966666667     0          
O6       O      0.344713333333     0.614606666667     0.714066666667     0          
C1       C      0.186143333333     0.568546666667     0.660366666667     0          
C2       C      0.137353333333     0.533916666667     0.650166666667     0          
C3       C      0.116433333333     0.501766666667     0.715566666667     0          
H1       H      0.132733333333     0.500666666667     0.765666666667     0          
C4       C      0.070333333333     0.470666666667     0.706366666667     0          
H2       H      0.055433333333     0.448466666667     0.751166666667     0          
C5       C      0.046413333333     0.471766666667     0.633166666667     0          
C6       C      0.068943333333     0.503466666667     0.567666666667     0          
H3       H      0.053033333333     0.503966666667     0.516166666667     0          
C7       C      0.114333333333     0.534566666667     0.575666666667     0          
H4       H      0.129433333333     0.556166666667     0.530166666667     0          
C8       C      0.996983333333     0.441366666667     0.627066666667     0          
C9       C      0.971383333333     0.431966666667     0.703866666667     0          
H5       H      0.985833333333     0.443166666667     0.759566666667     0          
C10      C      0.923893333333     0.405966666667     0.700166666667     0          
C11      C      0.901913333333     0.388666666667     0.616166666667     0          
C12      C      0.928833333333     0.397066666667     0.540066666667     0          
H6       H      0.914933333333     0.384966666667     0.484166666667     0          
C13      C      0.974933333333     0.422666666667     0.545266666667     0          
H7       H      0.992333333333     0.427866666667     0.492866666667     0          
C14      C      0.898213333333     0.397966666667     0.777866666667     0          
H8       H      0.912833333333     0.409066666667     0.833466666667     0          
C15      C      0.851833333333     0.373866666667     0.774266666667     0          
C16      C      0.830133333333     0.356766666667     0.691066666667     0          
H9       H      0.798233333333     0.340066666667     0.688966666667     0          
C17      C      0.853633333333     0.363566666667     0.614966666667     0          
H10      H      0.838233333333     0.351766666667     0.560366666667     0          
C18      C      0.826233333333     0.366766666667     0.857666666667     0          
C19      C      0.840543333333     0.399726666667     0.920866666667     0          
H11      H      0.868133333333     0.426966666667     0.912166666667     0          
C20      C      0.815513333333     0.394216666667     0.997666666667     0          
H12      H      0.825733333333     0.417866666667     0.040166666667     0          
C21      C      0.775863333333     0.354366666667     0.012166666667     0          
C22      C      0.761333333333     0.320566666667     0.951266666667     0          
H13      H      0.734333333333     0.292966666667     0.961066666667     0          
C23      C      0.786733333333     0.327066666667     0.873766666667     0          
H14      H      0.776633333333     0.303466666667     0.831266666667     0          
C24      C      0.748143333333     0.349016666667     0.092066666667     0          
O5       O      0.333333333333     0.666666666667     0.806166666667     0          
Zr1      Zr     0.396983333333     0.678196666667     0.761426666667     0          
O1       O      0.435773333333     0.643656666667     0.726066666667     0          
O2       O      0.400243333333     0.601586666667     0.601366666667     0          
O3       O      0.690923333333     0.414016666667     0.119866666667     0          
O4       O      0.615153333333     0.367366666667     0.124966666667     0          
O6       O      0.385393333333     0.730106666667     0.714066666667     0          
C1       C      0.431453333333     0.617596666667     0.660366666667     0          
C2       C      0.466083333333     0.603436666667     0.650166666667     0          
C3       C      0.498233333333     0.614666666667     0.715566666667     0          
H1       H      0.499333333333     0.632066666667     0.765666666667     0          
C4       C      0.529333333333     0.599666666667     0.706366666667     0          
H2       H      0.551533333333     0.606966666667     0.751166666667     0          
C5       C      0.528233333333     0.574646666667     0.633166666667     0          
C6       C      0.496533333333     0.565476666667     0.567666666667     0          
H3       H      0.496033333333     0.549066666667     0.516166666667     0          
C7       C      0.465433333333     0.579766666667     0.575666666667     0          
H4       H      0.443833333333     0.573266666667     0.530166666667     0          
C8       C      0.558633333333     0.555616666667     0.627066666667     0          
C9       C      0.568033333333     0.539416666667     0.703866666667     0          
H5       H      0.556833333333     0.542666666667     0.759566666667     0          
C10      C      0.594033333333     0.517926666667     0.700166666667     0          
C11      C      0.611333333333     0.513246666667     0.616166666667     0          
C12      C      0.602933333333     0.531766666667     0.540066666667     0          
H6       H      0.615033333333     0.529966666667     0.484166666667     0          
C13      C      0.577333333333     0.552266666667     0.545266666667     0          
H7       H      0.572133333333     0.564466666667     0.492866666667     0          
C14      C      0.602033333333     0.500246666667     0.777866666667     0          
H8       H      0.590933333333     0.503766666667     0.833466666667     0          
C15      C      0.626133333333     0.477966666667     0.774266666667     0          
C16      C      0.643233333333     0.473366666667     0.691066666667     0          
H9       H      0.659933333333     0.458166666667     0.688966666667     0          
C17      C      0.636433333333     0.490066666667     0.614966666667     0          
H10      H      0.648233333333     0.486466666667     0.560366666667     0          
C18      C      0.633233333333     0.459466666667     0.857666666667     0          
C19      C      0.600273333333     0.440816666667     0.920866666667     0          
H11      H      0.573033333333     0.441166666667     0.912166666667     0          
C20      C      0.605783333333     0.421296666667     0.997666666667     0          
H12      H      0.582133333333     0.407866666667     0.040166666667     0          
C21      C      0.645633333333     0.421496666667     0.012166666667     0          
C22      C      0.679433333333     0.440766666667     0.951266666667     0          
H13      H      0.707033333333     0.441366666667     0.961066666667     0          
C23      C      0.672933333333     0.459666666667     0.873766666667     0          
H14      H      0.696533333333     0.473166666667     0.831266666667     0          
C24      C      0.650983333333     0.399126666667     0.092066666667     0          
Zr1      Zr     0.321803333333     0.718786666667     0.761426666667     0          
O1       O      0.356343333333     0.792116666667     0.726066666667     0          
O2       O      0.398413333333     0.798656666667     0.601366666667     0          
O3       O      0.585983333333     0.276906666667     0.119866666667     0          
O4       O      0.632633333333     0.247786666667     0.124966666667     0          
O6       O      0.269893333333     0.655286666667     0.714066666667     0          
C1       C      0.382403333333     0.813856666667     0.660366666667     0          
C2       C      0.396563333333     0.862646666667     0.650166666667     0          
C3       C      0.385333333333     0.883566666667     0.715566666667     0          
H1       H      0.367933333333     0.867266666667     0.765666666667     0          
C4       C      0.400333333333     0.929666666667     0.706366666667     0          
H2       H      0.393033333333     0.944566666667     0.751166666667     0          
C5       C      0.425353333333     0.953586666667     0.633166666667     0          
C6       C      0.434523333333     0.931056666667     0.567666666667     0          
H3       H      0.450933333333     0.946966666667     0.516166666667     0          
C7       C      0.420233333333     0.885666666667     0.575666666667     0          
H4       H      0.426733333333     0.870566666667     0.530166666667     0          
C8       C      0.444383333333     0.003016666667     0.627066666667     0          
C9       C      0.460583333333     0.028616666667     0.703866666667     0          
H5       H      0.457333333333     0.014166666667     0.759566666667     0          
C10      C      0.482073333333     0.076106666667     0.700166666667     0          
C11      C      0.486753333333     0.098086666667     0.616166666667     0          
C12      C      0.468233333333     0.071166666667     0.540066666667     0          
H6       H      0.470033333333     0.085066666667     0.484166666667     0          
C13      C      0.447733333333     0.025066666667     0.545266666667     0          
H7       H      0.435533333333     0.007666666667     0.492866666667     0          
C14      C      0.499753333333     0.101786666667     0.777866666667     0          
H8       H      0.496233333333     0.087166666667     0.833466666667     0          
C15      C      0.522033333333     0.148166666667     0.774266666667     0          
C16      C      0.526633333333     0.169866666667     0.691066666667     0          
H9       H      0.541833333333     0.201766666667     0.688966666667     0          
C17      C      0.509933333333     0.146366666667     0.614966666667     0          
H10      H      0.513533333333     0.161766666667     0.560366666667     0          
C18      C      0.540533333333     0.173766666667     0.857666666667     0          
C19      C      0.559183333333     0.159456666667     0.920866666667     0          
H11      H      0.558833333333     0.131866666667     0.912166666667     0          
C20      C      0.578703333333     0.184486666667     0.997666666667     0          
H12      H      0.592133333333     0.174266666667     0.040166666667     0          
C21      C      0.578503333333     0.224136666667     0.012166666667     0          
C22      C      0.559233333333     0.238666666667     0.951266666667     0          
H13      H      0.558633333333     0.265666666667     0.961066666667     0          
C23      C      0.540333333333     0.213266666667     0.873766666667     0          
H14      H      0.526833333333     0.223366666667     0.831266666667     0          
C24      C      0.600873333333     0.251856666667     0.092066666667     0          


