data_BIKNER

_audit_creation_method RASPA-1.0
_audit_creation_date 2020-4-3
_audit_author_name 'Rocio Bueno-Perez'

_cell_length_a    30.3525
_cell_length_b    30.3525
_cell_length_c    14.9329
_cell_angle_alpha 90
_cell_angle_beta  90
_cell_angle_gamma 120
_cell_volume      11914.2

_symmetry_cell_setting          trigonal
_symmetry_space_group_name_Hall 'P 1'
_symmetry_space_group_name_H-M  'P 1'
_symmetry_Int_Tables_number     1

_symmetry_equiv_pos_as_xyz 'x,y,z'

loop_
_atom_site_label
_atom_site_type_symbol
_atom_site_fract_x
_atom_site_fract_y
_atom_site_fract_z
_atom_site_charge
Zr1      Zr     0.609350000000     0.349140000000     0.929160000000     0          
O1       O      0.597680000000     0.413450000000     0.895230000000     0          
O2       O      0.645130000000     0.451430000000     0.771250000000     0          
O3       O      0.424300000000     0.691140000000     0.380690000000     0          
O4       O      0.369040000000     0.605920000000     0.376960000000     0          
O5       O      0.666700000000     0.333300000000     0.975400000000     0          
O6       O      0.610250000000     0.349050000000     0.785500000000     0          
C1       C      0.613880000000     0.446220000000     0.832400000000     0          
C2       C      0.593670000000     0.482160000000     0.830700000000     0          
C3       C      0.558400000000     0.477500000000     0.893500000000     0          
H1       H      0.547400000000     0.451800000000     0.938000000000     0          
C4       C      0.538800000000     0.510400000000     0.892000000000     0          
H2       H      0.514800000000     0.507200000000     0.936100000000     0          
C5       C      0.553920000000     0.547620000000     0.827400000000     0          
C6       C      0.589000000000     0.551900000000     0.764400000000     0          
H3       H      0.599900000000     0.577500000000     0.719600000000     0          
C7       C      0.608500000000     0.519280000000     0.766000000000     0          
H4       H      0.632500000000     0.522500000000     0.721800000000     0          
C8       C      0.530030000000     0.580160000000     0.825000000000     0          
C9       C      0.521030000000     0.599350000000     0.903200000000     0          
H5       H      0.531900000000     0.593200000000     0.959200000000     0          
C10      C      0.496320000000     0.627390000000     0.900300000000     0          
H6       H      0.490200000000     0.640200000000     0.954000000000     0          
C11      C      0.480550000000     0.636590000000     0.818900000000     0          
H7       H      0.463700000000     0.655900000000     0.817400000000     0          
C12      C      0.488990000000     0.617900000000     0.738800000000     0          
C13      C      0.514130000000     0.589890000000     0.743300000000     0          
H8       H      0.520500000000     0.577200000000     0.689600000000     0          
C14      C      0.470040000000     0.625750000000     0.652600000000     0          
C15      C      0.466000000000     0.668870000000     0.639000000000     0          
H9       H      0.476500000000     0.693900000000     0.684800000000     0          
C16      C      0.446700000000     0.675890000000     0.559200000000     0          
H10      H      0.445500000000     0.706200000000     0.550100000000     0          
C17      C      0.429520000000     0.639410000000     0.493500000000     0          
C18      C      0.432770000000     0.595800000000     0.505600000000     0          
H11      H      0.420600000000     0.570200000000     0.460800000000     0          
C19      C      0.454060000000     0.589900000000     0.584000000000     0          
H12      H      0.457800000000     0.560800000000     0.590900000000     0          
C20      C      0.406040000000     0.646090000000     0.410400000000     0          
C21      C      0.451300000000     0.469300000000     0.512300000000     0          
C22      C      0.484400000000     0.472000000000     0.572900000000     0          
H13      H      0.473100000000     0.452700000000     0.626400000000     0          
C23      C      0.532800000000     0.501800000000     0.557600000000     0          
H14      H      0.556800000000     0.502300000000     0.598800000000     0          
C24      C      0.400400000000     0.436900000000     0.536000000000     0          
H15      H      0.398900000000     0.419400000000     0.592000000000     0          
H16      H      0.383500000000     0.456900000000     0.544200000000     0          
H17      H      0.383300000000     0.411800000000     0.488500000000     0          
C25      C      0.638300000000     0.532900000000     0.088800000000     0          
H18      H      0.637000000000     0.501800000000     0.102500000000     0          
C26      C      0.662800000000     0.558000000000     0.019100000000     0          
C27      C      0.662400000000     0.599900000000     0.997300000000     0          
H19      H      0.682600000000     0.620500000000     0.949000000000     0          
C28      C      0.633900000000     0.612300000000     0.043000000000     0          
H20      H      0.627400000000     0.637800000000     0.021100000000     0          
C29      C      0.614300000000     0.590100000000     0.119000000000     0          
C30      C      0.695800000000     0.544700000000     0.969500000000     0          
H21      H      0.711100000000     0.568100000000     0.918900000000     0          
H22      H      0.722800000000     0.547300000000     0.009000000000     0          
H23      H      0.675800000000     0.509700000000     0.947100000000     0          
C31      C      0.615200000000     0.549100000000     0.141000000000     0          
H24      H      0.599200000000     0.531200000000     0.194100000000     0          
C32      C      0.588000000000     0.609000000000     0.177000000000     0          
H25      H      0.591100000000     0.639700000000     0.150800000000     0          
H26      H      0.552300000000     0.582700000000     0.181700000000     0          
H27      H      0.603900000000     0.616300000000     0.236200000000     0          
O7       O      0.333300000000     0.666700000000     0.516500000000     0          
O8?      O      0.704100000000     0.511300000000     0.952800000000     0          
Zr1A     Zr     0.650860000000     0.260210000000     0.929160000000     0          
O1A      O      0.586550000000     0.184230000000     0.895230000000     0          
O2A      O      0.548570000000     0.193700000000     0.771250000000     0          
O3A      O      0.308860000000     0.733160000000     0.380690000000     0          
O4A      O      0.394080000000     0.763120000000     0.376960000000     0          
O6A      O      0.650950000000     0.261200000000     0.785500000000     0          
C1A      C      0.553780000000     0.167660000000     0.832400000000     0          
C2A      C      0.517840000000     0.111510000000     0.830700000000     0          
C3A      C      0.522500000000     0.080900000000     0.893500000000     0          
H1A      H      0.548200000000     0.095600000000     0.938000000000     0          
C4A      C      0.489600000000     0.028400000000     0.892000000000     0          
H2A      H      0.492800000000     0.007600000000     0.936100000000     0          
C5A      C      0.452380000000     0.006300000000     0.827400000000     0          
C6A      C      0.448100000000     0.037100000000     0.764400000000     0          
H3A      H      0.422500000000     0.022400000000     0.719600000000     0          
C7A      C      0.480720000000     0.089220000000     0.766000000000     0          
H4A      H      0.477500000000     0.110000000000     0.721800000000     0          
C8A      C      0.419840000000     0.949870000000     0.825000000000     0          
C9A      C      0.400650000000     0.921680000000     0.903200000000     0          
H5A      H      0.406800000000     0.938700000000     0.959200000000     0          
C10A     C      0.372610000000     0.868930000000     0.900300000000     0          
H6A      H      0.359800000000     0.850000000000     0.954000000000     0          
C11A     C      0.363410000000     0.843960000000     0.818900000000     0          
H7A      H      0.344100000000     0.807800000000     0.817400000000     0          
C12A     C      0.382100000000     0.871090000000     0.738800000000     0          
C13A     C      0.410110000000     0.924240000000     0.743300000000     0          
H8A      H      0.422800000000     0.943300000000     0.689600000000     0          
C14A     C      0.374250000000     0.844290000000     0.652600000000     0          
C15A     C      0.331130000000     0.797130000000     0.639000000000     0          
H9A      H      0.306100000000     0.782600000000     0.684800000000     0          
C16A     C      0.324110000000     0.770810000000     0.559200000000     0          
H10A     H      0.293800000000     0.739300000000     0.550100000000     0          
C17A     C      0.360590000000     0.790110000000     0.493500000000     0          
C18A     C      0.404200000000     0.836970000000     0.505600000000     0          
H11A     H      0.429800000000     0.850400000000     0.460800000000     0          
C19A     C      0.410100000000     0.864160000000     0.584000000000     0          
H12A     H      0.439200000000     0.897000000000     0.590900000000     0          
C20A     C      0.353910000000     0.759950000000     0.410400000000     0          
Zr1B     Zr     0.739790000000     0.390650000000     0.929160000000     0          
O1B      O      0.815770000000     0.402320000000     0.895230000000     0          
O2B      O      0.806300000000     0.354870000000     0.771250000000     0          
O3B      O      0.266840000000     0.575700000000     0.380690000000     0          
O4B      O      0.236880000000     0.630960000000     0.376960000000     0          
O6B      O      0.738800000000     0.389750000000     0.785500000000     0          
C1B      C      0.832340000000     0.386120000000     0.832400000000     0          
C2B      C      0.888490000000     0.406330000000     0.830700000000     0          
C3B      C      0.919100000000     0.441600000000     0.893500000000     0          
H1B      H      0.904400000000     0.452600000000     0.938000000000     0          
C4B      C      0.971600000000     0.461200000000     0.892000000000     0          
H2B      H      0.992400000000     0.485200000000     0.936100000000     0          
C5B      C      0.993700000000     0.446080000000     0.827400000000     0          
C6B      C      0.962900000000     0.411000000000     0.764400000000     0          
H3B      H      0.977600000000     0.400100000000     0.719600000000     0          
C7B      C      0.910780000000     0.391500000000     0.766000000000     0          
H4B      H      0.890000000000     0.367500000000     0.721800000000     0          
C8B      C      0.050130000000     0.469970000000     0.825000000000     0          
C9B      C      0.078320000000     0.478970000000     0.903200000000     0          
H5B      H      0.061300000000     0.468100000000     0.959200000000     0          
C10B     C      0.131070000000     0.503680000000     0.900300000000     0          
H6B      H      0.150000000000     0.509800000000     0.954000000000     0          
C11B     C      0.156040000000     0.519450000000     0.818900000000     0          
H7B      H      0.192200000000     0.536300000000     0.817400000000     0          
C12B     C      0.128910000000     0.511010000000     0.738800000000     0          
C13B     C      0.075760000000     0.485870000000     0.743300000000     0          
H8B      H      0.056700000000     0.479500000000     0.689600000000     0          
C14B     C      0.155710000000     0.529960000000     0.652600000000     0          
C15B     C      0.202870000000     0.534000000000     0.639000000000     0          
H9B      H      0.217400000000     0.523500000000     0.684800000000     0          
C16B     C      0.229190000000     0.553300000000     0.559200000000     0          
H10B     H      0.260700000000     0.554500000000     0.550100000000     0          
C17B     C      0.209890000000     0.570480000000     0.493500000000     0          
C18B     C      0.163030000000     0.567230000000     0.505600000000     0          
H11B     H      0.149600000000     0.579400000000     0.460800000000     0          
C19B     C      0.135840000000     0.545940000000     0.584000000000     0          
H12B     H      0.103000000000     0.542200000000     0.590900000000     0          
C20B     C      0.240050000000     0.593960000000     0.410400000000     0          
Zr1C     Zr     0.276017000000     0.682473000000     0.262493000000     0          
Zr1D     Zr     0.317527000000     0.593543000000     0.262493000000     0          
Zr1E     Zr     0.406457000000     0.723983000000     0.262493000000     0          
Zr1L     Zr     0.723983000000     0.317527000000     0.737507000000     0          
Zr1M     Zr     0.682473000000     0.406457000000     0.737507000000     0          
Zr1N     Zr     0.593543000000     0.276017000000     0.737507000000     0          
O2L      O      0.688203000000     0.215237000000     0.895417000000     0          
O2M      O      0.784763000000     0.472967000000     0.895417000000     0          
O2N      O      0.527033000000     0.311797000000     0.895417000000     0          
O3F      O      0.757633000000     0.357807000000     0.047357000000     0          
O3G      O      0.642193000000     0.399827000000     0.047357000000     0          
O3H      O      0.600173000000     0.242367000000     0.047357000000     0          
O4F      O      0.702373000000     0.272587000000     0.043627000000     0          
O4G      O      0.727413000000     0.429787000000     0.043627000000     0          
O4H      O      0.570213000000     0.297627000000     0.043627000000     0          
O6L      O      0.723083000000     0.317617000000     0.881167000000     0          
O6M      O      0.682383000000     0.405467000000     0.881167000000     0          
O6N      O      0.594533000000     0.276917000000     0.881167000000     0          
C21I     C      0.548700000000     0.530700000000     0.487700000000     0          
C22I     C      0.515600000000     0.528000000000     0.427100000000     0          
H13I     H      0.526900000000     0.547300000000     0.373600000000     0          
C23I     C      0.467200000000     0.498200000000     0.442400000000     0          
H14I     H      0.443200000000     0.497700000000     0.401200000000     0          
C24I     C      0.599600000000     0.563100000000     0.464000000000     0          
H15I     H      0.601100000000     0.580600000000     0.408000000000     0          
H16I     H      0.616500000000     0.543100000000     0.455800000000     0          
H17I     H      0.616700000000     0.588200000000     0.511500000000     0          
C21      C      0.530700000000     0.982000000000     0.512300000000     0          
C22      C      0.528000000000     0.012400000000     0.572900000000     0          
H13      H      0.547300000000     0.020400000000     0.626400000000     0          
C23      C      0.498200000000     0.031000000000     0.557600000000     0          
H14      H      0.497700000000     0.054500000000     0.598800000000     0          
C24      C      0.563100000000     0.963500000000     0.536000000000     0          
H15      H      0.580600000000     0.979500000000     0.592000000000     0          
H16      H      0.543100000000     0.926600000000     0.544200000000     0          
H17      H      0.588200000000     0.971500000000     0.488500000000     0          
C25      C      0.467100000000     0.105400000000     0.088800000000     0          
H18      H      0.498200000000     0.135200000000     0.102500000000     0          
C26      C      0.442000000000     0.104800000000     0.019100000000     0          
C27      C      0.400100000000     0.062500000000     0.997300000000     0          
H19      H      0.379500000000     0.062100000000     0.949000000000     0          
C28      C      0.387700000000     0.021600000000     0.043000000000     0          
H20      H      0.362200000000     0.989600000000     0.021100000000     0          
C29      C      0.409900000000     0.024200000000     0.119000000000     0          
C30      C      0.455300000000     0.151100000000     0.969500000000     0          
H21      H      0.431900000000     0.143000000000     0.918900000000     0          
H22      H      0.452700000000     0.175500000000     0.009000000000     0          
H23      H      0.490300000000     0.166100000000     0.947100000000     0          
C31      C      0.450900000000     0.066100000000     0.141000000000     0          
H24      H      0.468800000000     0.068000000000     0.194100000000     0          
C32      C      0.391000000000     0.979000000000     0.177000000000     0          
H25      H      0.360300000000     0.951400000000     0.150800000000     0          
H26      H      0.417300000000     0.969600000000     0.181700000000     0          
H27      H      0.383700000000     0.987600000000     0.236200000000     0          
O8?      O      0.488700000000     0.192800000000     0.952800000000     0          
C21I     C      0.469300000000     0.018000000000     0.487700000000     0          
C22I     C      0.472000000000     0.987600000000     0.427100000000     0          
H13I     H      0.452700000000     0.979600000000     0.373600000000     0          
C23I     C      0.501800000000     0.969000000000     0.442400000000     0          
H14I     H      0.502300000000     0.945500000000     0.401200000000     0          
C24I     C      0.436900000000     0.036500000000     0.464000000000     0          
H15I     H      0.419400000000     0.020500000000     0.408000000000     0          
H16I     H      0.456900000000     0.073400000000     0.455800000000     0          
H17I     H      0.411800000000     0.028500000000     0.511500000000     0          
C21      C      0.018000000000     0.548700000000     0.512300000000     0          
C22      C      0.987600000000     0.515600000000     0.572900000000     0          
H13      H      0.979600000000     0.526900000000     0.626400000000     0          
C23      C      0.969000000000     0.467200000000     0.557600000000     0          
H14      H      0.945500000000     0.443200000000     0.598800000000     0          
C24      C      0.036500000000     0.599600000000     0.536000000000     0          
H15      H      0.020500000000     0.601100000000     0.592000000000     0          
H16      H      0.073400000000     0.616500000000     0.544200000000     0          
H17      H      0.028500000000     0.616700000000     0.488500000000     0          
C25      C      0.894600000000     0.361700000000     0.088800000000     0          
H18      H      0.864800000000     0.363000000000     0.102500000000     0          
C26      C      0.895200000000     0.337200000000     0.019100000000     0          
C27      C      0.937500000000     0.337600000000     0.997300000000     0          
H19      H      0.937900000000     0.317400000000     0.949000000000     0          
C28      C      0.978400000000     0.366100000000     0.043000000000     0          
H20      H      0.010400000000     0.372600000000     0.021100000000     0          
C29      C      0.975800000000     0.385700000000     0.119000000000     0          
C30      C      0.848900000000     0.304200000000     0.969500000000     0          
H21      H      0.857000000000     0.288900000000     0.918900000000     0          
H22      H      0.824500000000     0.277200000000     0.009000000000     0          
H23      H      0.833900000000     0.324200000000     0.947100000000     0          
C31      C      0.933900000000     0.384800000000     0.141000000000     0          
H24      H      0.932000000000     0.400800000000     0.194100000000     0          
C32      C      0.021000000000     0.412000000000     0.177000000000     0          
H25      H      0.048600000000     0.408900000000     0.150800000000     0          
H26      H      0.030400000000     0.447700000000     0.181700000000     0          
H27      H      0.012400000000     0.396100000000     0.236200000000     0          
O8?      O      0.807200000000     0.295900000000     0.952800000000     0          
C21I     C      0.982000000000     0.451300000000     0.487700000000     0          
C22I     C      0.012400000000     0.484400000000     0.427100000000     0          
H13I     H      0.020400000000     0.473100000000     0.373600000000     0          
C23I     C      0.031000000000     0.532800000000     0.442400000000     0          
H14I     H      0.054500000000     0.556800000000     0.401200000000     0          
C24I     C      0.963500000000     0.400400000000     0.464000000000     0          
H15I     H      0.979500000000     0.398900000000     0.408000000000     0          
H16I     H      0.926600000000     0.383500000000     0.455800000000     0          
H17I     H      0.971500000000     0.383300000000     0.511500000000     0          
Zr1      Zr     0.390650000000     0.650860000000     0.070840000000     0          
O1       O      0.402320000000     0.586550000000     0.104770000000     0          
O2       O      0.354870000000     0.548570000000     0.228750000000     0          
O3       O      0.575700000000     0.308860000000     0.619310000000     0          
O4       O      0.630960000000     0.394080000000     0.623040000000     0          
O5       O      0.333300000000     0.666700000000     0.024600000000     0          
O6       O      0.389750000000     0.650950000000     0.214500000000     0          
C1       C      0.386120000000     0.553780000000     0.167600000000     0          
C2       C      0.406330000000     0.517840000000     0.169300000000     0          
C3       C      0.441600000000     0.522500000000     0.106500000000     0          
H1       H      0.452600000000     0.548200000000     0.062000000000     0          
C4       C      0.461200000000     0.489600000000     0.108000000000     0          
H2       H      0.485200000000     0.492800000000     0.063900000000     0          
C5       C      0.446080000000     0.452380000000     0.172600000000     0          
C6       C      0.411000000000     0.448100000000     0.235600000000     0          
H3       H      0.400100000000     0.422500000000     0.280400000000     0          
C7       C      0.391500000000     0.480720000000     0.234000000000     0          
H4       H      0.367500000000     0.477500000000     0.278200000000     0          
C8       C      0.469970000000     0.419840000000     0.175000000000     0          
C9       C      0.478970000000     0.400650000000     0.096800000000     0          
H5       H      0.468100000000     0.406800000000     0.040800000000     0          
C10      C      0.503680000000     0.372610000000     0.099700000000     0          
H6       H      0.509800000000     0.359800000000     0.046000000000     0          
C11      C      0.519450000000     0.363410000000     0.181100000000     0          
H7       H      0.536300000000     0.344100000000     0.182600000000     0          
C12      C      0.511010000000     0.382100000000     0.261200000000     0          
C13      C      0.485870000000     0.410110000000     0.256700000000     0          
H8       H      0.479500000000     0.422800000000     0.310400000000     0          
C14      C      0.529960000000     0.374250000000     0.347400000000     0          
C15      C      0.534000000000     0.331130000000     0.361000000000     0          
H9       H      0.523500000000     0.306100000000     0.315200000000     0          
C16      C      0.553300000000     0.324110000000     0.440800000000     0          
H10      H      0.554500000000     0.293800000000     0.449900000000     0          
C17      C      0.570480000000     0.360590000000     0.506500000000     0          
C18      C      0.567230000000     0.404200000000     0.494400000000     0          
H11      H      0.579400000000     0.429800000000     0.539200000000     0          
C19      C      0.545940000000     0.410100000000     0.416000000000     0          
H12      H      0.542200000000     0.439200000000     0.409100000000     0          
C20      C      0.593960000000     0.353910000000     0.589600000000     0          
C25      C      0.361700000000     0.467100000000     0.911200000000     0          
H18      H      0.363000000000     0.498200000000     0.897500000000     0          
C26      C      0.337200000000     0.442000000000     0.980900000000     0          
C27      C      0.337600000000     0.400100000000     0.002700000000     0          
H19      H      0.317400000000     0.379500000000     0.051000000000     0          
C28      C      0.366100000000     0.387700000000     0.957000000000     0          
H20      H      0.372600000000     0.362200000000     0.978900000000     0          
C29      C      0.385700000000     0.409900000000     0.881000000000     0          
C30      C      0.304200000000     0.455300000000     0.030500000000     0          
H21      H      0.288900000000     0.431900000000     0.081100000000     0          
H22      H      0.277200000000     0.452700000000     0.991000000000     0          
H23      H      0.324200000000     0.490300000000     0.052900000000     0          
C31      C      0.384800000000     0.450900000000     0.859000000000     0          
H24      H      0.400800000000     0.468800000000     0.805900000000     0          
C32      C      0.412000000000     0.391000000000     0.823000000000     0          
H25      H      0.408900000000     0.360300000000     0.849200000000     0          
H26      H      0.447700000000     0.417300000000     0.818300000000     0          
H27      H      0.396100000000     0.383700000000     0.763800000000     0          
O7       O      0.666700000000     0.333300000000     0.483500000000     0          
O8?      O      0.295900000000     0.488700000000     0.047200000000     0          
Zr1A     Zr     0.349140000000     0.739790000000     0.070840000000     0          
O1A      O      0.413450000000     0.815770000000     0.104770000000     0          
O2A      O      0.451430000000     0.806300000000     0.228750000000     0          
O3A      O      0.691140000000     0.266840000000     0.619310000000     0          
O4A      O      0.605920000000     0.236880000000     0.623040000000     0          
O6A      O      0.349050000000     0.738800000000     0.214500000000     0          
C1A      C      0.446220000000     0.832340000000     0.167600000000     0          
C2A      C      0.482160000000     0.888490000000     0.169300000000     0          
C3A      C      0.477500000000     0.919100000000     0.106500000000     0          
H1A      H      0.451800000000     0.904400000000     0.062000000000     0          
C4A      C      0.510400000000     0.971600000000     0.108000000000     0          
H2A      H      0.507200000000     0.992400000000     0.063900000000     0          
C5A      C      0.547620000000     0.993700000000     0.172600000000     0          
C6A      C      0.551900000000     0.962900000000     0.235600000000     0          
H3A      H      0.577500000000     0.977600000000     0.280400000000     0          
C7A      C      0.519280000000     0.910780000000     0.234000000000     0          
H4A      H      0.522500000000     0.890000000000     0.278200000000     0          
C8A      C      0.580160000000     0.050130000000     0.175000000000     0          
C9A      C      0.599350000000     0.078320000000     0.096800000000     0          
H5A      H      0.593200000000     0.061300000000     0.040800000000     0          
C10A     C      0.627390000000     0.131070000000     0.099700000000     0          
H6A      H      0.640200000000     0.150000000000     0.046000000000     0          
C11A     C      0.636590000000     0.156040000000     0.181100000000     0          
H7A      H      0.655900000000     0.192200000000     0.182600000000     0          
C12A     C      0.617900000000     0.128910000000     0.261200000000     0          
C13A     C      0.589890000000     0.075760000000     0.256700000000     0          
H8A      H      0.577200000000     0.056700000000     0.310400000000     0          
C14A     C      0.625750000000     0.155710000000     0.347400000000     0          
C15A     C      0.668870000000     0.202870000000     0.361000000000     0          
H9A      H      0.693900000000     0.217400000000     0.315200000000     0          
C16A     C      0.675890000000     0.229190000000     0.440800000000     0          
H10A     H      0.706200000000     0.260700000000     0.449900000000     0          
C17A     C      0.639410000000     0.209890000000     0.506500000000     0          
C18A     C      0.595800000000     0.163030000000     0.494400000000     0          
H11A     H      0.570200000000     0.149600000000     0.539200000000     0          
C19A     C      0.589900000000     0.135840000000     0.416000000000     0          
H12A     H      0.560800000000     0.103000000000     0.409100000000     0          
C20A     C      0.646090000000     0.240050000000     0.589600000000     0          
Zr1B     Zr     0.260210000000     0.609350000000     0.070840000000     0          
O1B      O      0.184230000000     0.597680000000     0.104770000000     0          
O2B      O      0.193700000000     0.645130000000     0.228750000000     0          
O3B      O      0.733160000000     0.424300000000     0.619310000000     0          
O4B      O      0.763120000000     0.369040000000     0.623040000000     0          
O6B      O      0.261200000000     0.610250000000     0.214500000000     0          
C1B      C      0.167660000000     0.613880000000     0.167600000000     0          
C2B      C      0.111510000000     0.593670000000     0.169300000000     0          
C3B      C      0.080900000000     0.558400000000     0.106500000000     0          
H1B      H      0.095600000000     0.547400000000     0.062000000000     0          
C4B      C      0.028400000000     0.538800000000     0.108000000000     0          
H2B      H      0.007600000000     0.514800000000     0.063900000000     0          
C5B      C      0.006300000000     0.553920000000     0.172600000000     0          
C6B      C      0.037100000000     0.589000000000     0.235600000000     0          
H3B      H      0.022400000000     0.599900000000     0.280400000000     0          
C7B      C      0.089220000000     0.608500000000     0.234000000000     0          
H4B      H      0.110000000000     0.632500000000     0.278200000000     0          
C8B      C      0.949870000000     0.530030000000     0.175000000000     0          
C9B      C      0.921680000000     0.521030000000     0.096800000000     0          
H5B      H      0.938700000000     0.531900000000     0.040800000000     0          
C10B     C      0.868930000000     0.496320000000     0.099700000000     0          
H6B      H      0.850000000000     0.490200000000     0.046000000000     0          
C11B     C      0.843960000000     0.480550000000     0.181100000000     0          
H7B      H      0.807800000000     0.463700000000     0.182600000000     0          
C12B     C      0.871090000000     0.488990000000     0.261200000000     0          
C13B     C      0.924240000000     0.514130000000     0.256700000000     0          
H8B      H      0.943300000000     0.520500000000     0.310400000000     0          
C14B     C      0.844290000000     0.470040000000     0.347400000000     0          
C15B     C      0.797130000000     0.466000000000     0.361000000000     0          
H9B      H      0.782600000000     0.476500000000     0.315200000000     0          
C16B     C      0.770810000000     0.446700000000     0.440800000000     0          
H10B     H      0.739300000000     0.445500000000     0.449900000000     0          
C17B     C      0.790110000000     0.429520000000     0.506500000000     0          
C18B     C      0.836970000000     0.432770000000     0.494400000000     0          
H11B     H      0.850400000000     0.420600000000     0.539200000000     0          
C19B     C      0.864160000000     0.454060000000     0.416000000000     0          
H12B     H      0.897000000000     0.457800000000     0.409100000000     0          
C20B     C      0.759950000000     0.406040000000     0.589600000000     0          
O2L      O      0.311797000000     0.784763000000     0.104583000000     0          
O2M      O      0.215237000000     0.527033000000     0.104583000000     0          
O2N      O      0.472967000000     0.688203000000     0.104583000000     0          
O3F      O      0.242367000000     0.642193000000     0.952643000000     0          
O3G      O      0.357807000000     0.600173000000     0.952643000000     0          
O3H      O      0.399827000000     0.757633000000     0.952643000000     0          
O4F      O      0.297627000000     0.727413000000     0.956373000000     0          
O4G      O      0.272587000000     0.570213000000     0.956373000000     0          
O4H      O      0.429787000000     0.702373000000     0.956373000000     0          
O6L      O      0.276917000000     0.682383000000     0.118833000000     0          
O6M      O      0.317617000000     0.594533000000     0.118833000000     0          
O6N      O      0.405467000000     0.723083000000     0.118833000000     0          
C25      C      0.532900000000     0.894600000000     0.911200000000     0          
H18      H      0.501800000000     0.864800000000     0.897500000000     0          
C26      C      0.558000000000     0.895200000000     0.980900000000     0          
C27      C      0.599900000000     0.937500000000     0.002700000000     0          
H19      H      0.620500000000     0.937900000000     0.051000000000     0          
C28      C      0.612300000000     0.978400000000     0.957000000000     0          
H20      H      0.637800000000     0.010400000000     0.978900000000     0          
C29      C      0.590100000000     0.975800000000     0.881000000000     0          
C30      C      0.544700000000     0.848900000000     0.030500000000     0          
H21      H      0.568100000000     0.857000000000     0.081100000000     0          
H22      H      0.547300000000     0.824500000000     0.991000000000     0          
H23      H      0.509700000000     0.833900000000     0.052900000000     0          
C31      C      0.549100000000     0.933900000000     0.859000000000     0          
H24      H      0.531200000000     0.932000000000     0.805900000000     0          
C32      C      0.609000000000     0.021000000000     0.823000000000     0          
H25      H      0.639700000000     0.048600000000     0.849200000000     0          
H26      H      0.582700000000     0.030400000000     0.818300000000     0          
H27      H      0.616300000000     0.012400000000     0.763800000000     0          
O8?      O      0.511300000000     0.807200000000     0.047200000000     0          
C25      C      0.105400000000     0.638300000000     0.911200000000     0          
H18      H      0.135200000000     0.637000000000     0.897500000000     0          
C26      C      0.104800000000     0.662800000000     0.980900000000     0          
C27      C      0.062500000000     0.662400000000     0.002700000000     0          
H19      H      0.062100000000     0.682600000000     0.051000000000     0          
C28      C      0.021600000000     0.633900000000     0.957000000000     0          
H20      H      0.989600000000     0.627400000000     0.978900000000     0          
C29      C      0.024200000000     0.614300000000     0.881000000000     0          
C30      C      0.151100000000     0.695800000000     0.030500000000     0          
H21      H      0.143000000000     0.711100000000     0.081100000000     0          
H22      H      0.175500000000     0.722800000000     0.991000000000     0          
H23      H      0.166100000000     0.675800000000     0.052900000000     0          
C31      C      0.066100000000     0.615200000000     0.859000000000     0          
H24      H      0.068000000000     0.599200000000     0.805900000000     0          
C32      C      0.979000000000     0.588000000000     0.823000000000     0          
H25      H      0.951400000000     0.591100000000     0.849200000000     0          
H26      H      0.969600000000     0.552300000000     0.818300000000     0          
H27      H      0.987600000000     0.603900000000     0.763800000000     0          
O8?      O      0.192800000000     0.704100000000     0.047200000000     0          
O1       O      0.264346666667     0.746783333333     0.228563333333     0          
O3       O      0.090966666667     0.024473333333     0.714023333333     0          
O4       O      0.035706666667     0.939253333333     0.710293333333     0          
O5       O      0.333366666667     0.666633333333     0.308733333333     0          
C1       C      0.280546666667     0.779553333333     0.165733333333     0          
C2       C      0.260336666667     0.815493333333     0.164033333333     0          
C3       C      0.225066666667     0.810833333333     0.226833333333     0          
H1       H      0.214066666667     0.785133333333     0.271333333333     0          
C4       C      0.205466666667     0.843733333333     0.225333333333     0          
H2       H      0.181466666667     0.840533333333     0.269433333333     0          
C5       C      0.220586666667     0.880953333333     0.160733333333     0          
C6       C      0.255666666667     0.885233333333     0.097733333333     0          
H3       H      0.266566666667     0.910833333333     0.052933333333     0          
C7       C      0.275166666667     0.852613333333     0.099333333333     0          
H4       H      0.299166666667     0.855833333333     0.055133333333     0          
C8       C      0.196696666667     0.913493333333     0.158333333333     0          
C9       C      0.187696666667     0.932683333333     0.236533333333     0          
H5       H      0.198566666667     0.926533333333     0.292533333333     0          
C10      C      0.162986666667     0.960723333333     0.233633333333     0          
H6       H      0.156866666667     0.973533333333     0.287333333333     0          
C11      C      0.147216666667     0.969923333333     0.152233333333     0          
H7       H      0.130366666667     0.989233333333     0.150733333333     0          
C12      C      0.155656666667     0.951233333333     0.072133333333     0          
C13      C      0.180796666667     0.923223333333     0.076633333333     0          
H8       H      0.187166666667     0.910533333333     0.022933333333     0          
C14      C      0.136706666667     0.959083333333     0.985933333333     0          
C15      C      0.132666666667     0.002203333333     0.972333333333     0          
H9       H      0.143166666667     0.027233333333     0.018133333333     0          
C16      C      0.113366666667     0.009223333333     0.892533333333     0          
H10      H      0.112166666667     0.039533333333     0.883433333333     0          
C17      C      0.096186666667     0.972743333333     0.826833333333     0          
C18      C      0.099436666667     0.929133333333     0.838933333333     0          
H11      H      0.087266666667     0.903533333333     0.794133333333     0          
C19      C      0.120726666667     0.923233333333     0.917333333333     0          
H12      H      0.124466666667     0.894133333333     0.924233333333     0          
C20      C      0.072706666667     0.979423333333     0.743733333333     0          
C21      C      0.117966666667     0.802633333333     0.845633333333     0          
C22      C      0.151066666667     0.805333333333     0.906233333333     0          
H13      H      0.139766666667     0.786033333333     0.959733333333     0          
C23      C      0.199466666667     0.835133333333     0.890933333333     0          
H14      H      0.223466666667     0.835633333333     0.932133333333     0          
C24      C      0.067066666667     0.770233333333     0.869333333333     0          
H15      H      0.065566666667     0.752733333333     0.925333333333     0          
H16      H      0.050166666667     0.790233333333     0.877533333333     0          
H17      H      0.049966666667     0.745133333333     0.821833333333     0          
C25      C      0.304966666667     0.866233333333     0.422133333333     0          
H18      H      0.303666666667     0.835133333333     0.435833333333     0          
C26      C      0.329466666667     0.891333333333     0.352433333333     0          
C27      C      0.329066666667     0.933233333333     0.330633333333     0          
H19      H      0.349266666667     0.953833333333     0.282333333333     0          
C28      C      0.300566666667     0.945633333333     0.376333333333     0          
H20      H      0.294066666667     0.971133333333     0.354433333333     0          
C29      C      0.280966666667     0.923433333333     0.452333333333     0          
C30      C      0.362466666667     0.878033333333     0.302833333333     0          
H21      H      0.377766666667     0.901433333333     0.252233333333     0          
H22      H      0.389466666667     0.880633333333     0.342333333333     0          
H23      H      0.342466666667     0.843033333333     0.280433333333     0          
C31      C      0.281866666667     0.882433333333     0.474333333333     0          
H24      H      0.265866666667     0.864533333333     0.527433333333     0          
C32      C      0.254666666667     0.942333333333     0.510333333333     0          
H25      H      0.257766666667     0.973033333333     0.484133333333     0          
H26      H      0.218966666667     0.916033333333     0.515033333333     0          
H27      H      0.270566666667     0.949633333333     0.569533333333     0          
O7       O      0.999966666667     0.000033333333     0.849833333333     0          
O8?      O      0.370766666667     0.844633333333     0.286133333333     0          
O1A      O      0.253216666667     0.517563333333     0.228563333333     0          
O3A      O      0.975526666667     0.066493333333     0.714023333333     0          
O4A      O      0.060746666667     0.096453333333     0.710293333333     0          
C1A      C      0.220446666667     0.500993333333     0.165733333333     0          
C2A      C      0.184506666667     0.444843333333     0.164033333333     0          
C3A      C      0.189166666667     0.414233333333     0.226833333333     0          
H1A      H      0.214866666667     0.428933333333     0.271333333333     0          
C4A      C      0.156266666667     0.361733333333     0.225333333333     0          
H2A      H      0.159466666667     0.340933333333     0.269433333333     0          
C5A      C      0.119046666667     0.339633333333     0.160733333333     0          
C6A      C      0.114766666667     0.370433333333     0.097733333333     0          
H3A      H      0.089166666667     0.355733333333     0.052933333333     0          
C7A      C      0.147386666667     0.422553333333     0.099333333333     0          
H4A      H      0.144166666667     0.443333333333     0.055133333333     0          
C8A      C      0.086506666667     0.283203333333     0.158333333333     0          
C9A      C      0.067316666667     0.255013333333     0.236533333333     0          
H5A      H      0.073466666667     0.272033333333     0.292533333333     0          
C10A     C      0.039276666667     0.202263333333     0.233633333333     0          
H6A      H      0.026466666667     0.183333333333     0.287333333333     0          
C11A     C      0.030076666667     0.177293333333     0.152233333333     0          
H7A      H      0.010766666667     0.141133333333     0.150733333333     0          
C12A     C      0.048766666667     0.204423333333     0.072133333333     0          
C13A     C      0.076776666667     0.257573333333     0.076633333333     0          
H8A      H      0.089466666667     0.276633333333     0.022933333333     0          
C14A     C      0.040916666667     0.177623333333     0.985933333333     0          
C15A     C      0.997796666667     0.130463333333     0.972333333333     0          
H9A      H      0.972766666667     0.115933333333     0.018133333333     0          
C16A     C      0.990776666667     0.104143333333     0.892533333333     0          
H10A     H      0.960466666667     0.072633333333     0.883433333333     0          
C17A     C      0.027256666667     0.123443333333     0.826833333333     0          
C18A     C      0.070866666667     0.170303333333     0.838933333333     0          
H11A     H      0.096466666667     0.183733333333     0.794133333333     0          
C19A     C      0.076766666667     0.197493333333     0.917333333333     0          
H12A     H      0.105866666667     0.230333333333     0.924233333333     0          
C20A     C      0.020576666667     0.093283333333     0.743733333333     0          
O1B      O      0.482436666667     0.735653333333     0.228563333333     0          
O3B      O      0.933506666667     0.909033333333     0.714023333333     0          
O4B      O      0.903546666667     0.964293333333     0.710293333333     0          
C1B      C      0.499006666667     0.719453333333     0.165733333333     0          
C2B      C      0.555156666667     0.739663333333     0.164033333333     0          
C3B      C      0.585766666667     0.774933333333     0.226833333333     0          
H1B      H      0.571066666667     0.785933333333     0.271333333333     0          
C4B      C      0.638266666667     0.794533333333     0.225333333333     0          
H2B      H      0.659066666667     0.818533333333     0.269433333333     0          
C5B      C      0.660366666667     0.779413333333     0.160733333333     0          
C6B      C      0.629566666667     0.744333333333     0.097733333333     0          
H3B      H      0.644266666667     0.733433333333     0.052933333333     0          
C7B      C      0.577446666667     0.724833333333     0.099333333333     0          
H4B      H      0.556666666667     0.700833333333     0.055133333333     0          
C8B      C      0.716796666667     0.803303333333     0.158333333333     0          
C9B      C      0.744986666667     0.812303333333     0.236533333333     0          
H5B      H      0.727966666667     0.801433333333     0.292533333333     0          
C10B     C      0.797736666667     0.837013333333     0.233633333333     0          
H6B      H      0.816666666667     0.843133333333     0.287333333333     0          
C11B     C      0.822706666667     0.852783333333     0.152233333333     0          
H7B      H      0.858866666667     0.869633333333     0.150733333333     0          
C12B     C      0.795576666667     0.844343333333     0.072133333333     0          
C13B     C      0.742426666667     0.819203333333     0.076633333333     0          
H8B      H      0.723366666667     0.812833333333     0.022933333333     0          
C14B     C      0.822376666667     0.863293333333     0.985933333333     0          
C15B     C      0.869536666667     0.867333333333     0.972333333333     0          
H9B      H      0.884066666667     0.856833333333     0.018133333333     0          
C16B     C      0.895856666667     0.886633333333     0.892533333333     0          
H10B     H      0.927366666667     0.887833333333     0.883433333333     0          
C17B     C      0.876556666667     0.903813333333     0.826833333333     0          
C18B     C      0.829696666667     0.900563333333     0.838933333333     0          
H11B     H      0.816266666667     0.912733333333     0.794133333333     0          
C19B     C      0.802506666667     0.879273333333     0.917333333333     0          
H12B     H      0.769666666667     0.875533333333     0.924233333333     0          
C20B     C      0.906716666667     0.927293333333     0.743733333333     0          
Zr1C     Zr     0.942683666667     0.015806333333     0.595826333333     0          
Zr1D     Zr     0.984193666667     0.926876333333     0.595826333333     0          
Zr1E     Zr     0.073123666667     0.057316333333     0.595826333333     0          
C21I     C      0.215366666667     0.864033333333     0.821033333333     0          
C22I     C      0.182266666667     0.861333333333     0.760433333333     0          
H13I     H      0.193566666667     0.880633333333     0.706933333333     0          
C23I     C      0.133866666667     0.831533333333     0.775733333333     0          
H14I     H      0.109866666667     0.831033333333     0.734533333333     0          
C24I     C      0.266266666667     0.896433333333     0.797333333333     0          
H15I     H      0.267766666667     0.913933333333     0.741333333333     0          
H16I     H      0.283166666667     0.876433333333     0.789133333333     0          
H17I     H      0.283366666667     0.921533333333     0.844833333333     0          
C21      C      0.197366666667     0.315333333333     0.845633333333     0          
C22      C      0.194666666667     0.345733333333     0.906233333333     0          
H13      H      0.213966666667     0.353733333333     0.959733333333     0          
C23      C      0.164866666667     0.364333333333     0.890933333333     0          
H14      H      0.164366666667     0.387833333333     0.932133333333     0          
C24      C      0.229766666667     0.296833333333     0.869333333333     0          
H15      H      0.247266666667     0.312833333333     0.925333333333     0          
H16      H      0.209766666667     0.259933333333     0.877533333333     0          
H17      H      0.254866666667     0.304833333333     0.821833333333     0          
C25      C      0.133766666667     0.438733333333     0.422133333333     0          
H18      H      0.164866666667     0.468533333333     0.435833333333     0          
C26      C      0.108666666667     0.438133333333     0.352433333333     0          
C27      C      0.066766666667     0.395833333333     0.330633333333     0          
H19      H      0.046166666667     0.395433333333     0.282333333333     0          
C28      C      0.054366666667     0.354933333333     0.376333333333     0          
H20      H      0.028866666667     0.322933333333     0.354433333333     0          
C29      C      0.076566666667     0.357533333333     0.452333333333     0          
C30      C      0.121966666667     0.484433333333     0.302833333333     0          
H21      H      0.098566666667     0.476333333333     0.252233333333     0          
H22      H      0.119366666667     0.508833333333     0.342333333333     0          
H23      H      0.156966666667     0.499433333333     0.280433333333     0          
C31      C      0.117566666667     0.399433333333     0.474333333333     0          
H24      H      0.135466666667     0.401333333333     0.527433333333     0          
C32      C      0.057666666667     0.312333333333     0.510333333333     0          
H25      H      0.026966666667     0.284733333333     0.484133333333     0          
H26      H      0.083966666667     0.302933333333     0.515033333333     0          
H27      H      0.050366666667     0.320933333333     0.569533333333     0          
O8?      O      0.155366666667     0.526133333333     0.286133333333     0          
C21I     C      0.135966666667     0.351333333333     0.821033333333     0          
C22I     C      0.138666666667     0.320933333333     0.760433333333     0          
H13I     H      0.119366666667     0.312933333333     0.706933333333     0          
C23I     C      0.168466666667     0.302333333333     0.775733333333     0          
H14I     H      0.168966666667     0.278833333333     0.734533333333     0          
C24I     C      0.103566666667     0.369833333333     0.797333333333     0          
H15I     H      0.086066666667     0.353833333333     0.741333333333     0          
H16I     H      0.123566666667     0.406733333333     0.789133333333     0          
H17I     H      0.078466666667     0.361833333333     0.844833333333     0          
C21      C      0.684666666667     0.882033333333     0.845633333333     0          
C22      C      0.654266666667     0.848933333333     0.906233333333     0          
H13      H      0.646266666667     0.860233333333     0.959733333333     0          
C23      C      0.635666666667     0.800533333333     0.890933333333     0          
H14      H      0.612166666667     0.776533333333     0.932133333333     0          
C24      C      0.703166666667     0.932933333333     0.869333333333     0          
H15      H      0.687166666667     0.934433333333     0.925333333333     0          
H16      H      0.740066666667     0.949833333333     0.877533333333     0          
H17      H      0.695166666667     0.950033333333     0.821833333333     0          
C25      C      0.561266666667     0.695033333333     0.422133333333     0          
H18      H      0.531466666667     0.696333333333     0.435833333333     0          
C26      C      0.561866666667     0.670533333333     0.352433333333     0          
C27      C      0.604166666667     0.670933333333     0.330633333333     0          
H19      H      0.604566666667     0.650733333333     0.282333333333     0          
C28      C      0.645066666667     0.699433333333     0.376333333333     0          
H20      H      0.677066666667     0.705933333333     0.354433333333     0          
C29      C      0.642466666667     0.719033333333     0.452333333333     0          
C30      C      0.515566666667     0.637533333333     0.302833333333     0          
H21      H      0.523666666667     0.622233333333     0.252233333333     0          
H22      H      0.491166666667     0.610533333333     0.342333333333     0          
H23      H      0.500566666667     0.657533333333     0.280433333333     0          
C31      C      0.600566666667     0.718133333333     0.474333333333     0          
H24      H      0.598666666667     0.734133333333     0.527433333333     0          
C32      C      0.687666666667     0.745333333333     0.510333333333     0          
H25      H      0.715266666667     0.742233333333     0.484133333333     0          
H26      H      0.697066666667     0.781033333333     0.515033333333     0          
H27      H      0.679066666667     0.729433333333     0.569533333333     0          
O8?      O      0.473866666667     0.629233333333     0.286133333333     0          
C21I     C      0.648666666667     0.784633333333     0.821033333333     0          
C22I     C      0.679066666667     0.817733333333     0.760433333333     0          
H13I     H      0.687066666667     0.806433333333     0.706933333333     0          
C23I     C      0.697666666667     0.866133333333     0.775733333333     0          
H14I     H      0.721166666667     0.890133333333     0.734533333333     0          
C24I     C      0.630166666667     0.733733333333     0.797333333333     0          
H15I     H      0.646166666667     0.732233333333     0.741333333333     0          
H16I     H      0.593266666667     0.716833333333     0.789133333333     0          
H17I     H      0.638166666667     0.716633333333     0.844833333333     0          
Zr1      Zr     0.057316666667     0.984193333333     0.404173333333     0          
O1       O      0.068986666667     0.919883333333     0.438103333333     0          
O2       O      0.021536666667     0.881903333333     0.562083333333     0          
O5       O      0.999966666667     0.000033333333     0.357933333333     0          
O6       O      0.056416666667     0.984283333333     0.547833333333     0          
C1       C      0.052786666667     0.887113333333     0.500933333333     0          
C2       C      0.072996666667     0.851173333333     0.502633333333     0          
C3       C      0.108266666667     0.855833333333     0.439833333333     0          
H1       H      0.119266666667     0.881533333333     0.395333333333     0          
C4       C      0.127866666667     0.822933333333     0.441333333333     0          
H2       H      0.151866666667     0.826133333333     0.397233333333     0          
C5       C      0.112746666667     0.785713333333     0.505933333333     0          
C6       C      0.077666666667     0.781433333333     0.568933333333     0          
H3       H      0.066766666667     0.755833333333     0.613733333333     0          
C7       C      0.058166666667     0.814053333333     0.567333333333     0          
H4       H      0.034166666667     0.810833333333     0.611533333333     0          
C8       C      0.136636666667     0.753173333333     0.508333333333     0          
C9       C      0.145636666667     0.733983333333     0.430133333333     0          
H5       H      0.134766666667     0.740133333333     0.374133333333     0          
C10      C      0.170346666667     0.705943333333     0.433033333333     0          
H6       H      0.176466666667     0.693133333333     0.379333333333     0          
C11      C      0.186116666667     0.696743333333     0.514433333333     0          
H7       H      0.202966666667     0.677433333333     0.515933333333     0          
C12      C      0.177676666667     0.715433333333     0.594533333333     0          
C13      C      0.152536666667     0.743443333333     0.590033333333     0          
H8       H      0.146166666667     0.756133333333     0.643733333333     0          
C14      C      0.196626666667     0.707583333333     0.680733333333     0          
C15      C      0.200666666667     0.664463333333     0.694333333333     0          
H9       H      0.190166666667     0.639433333333     0.648533333333     0          
C16      C      0.219966666667     0.657443333333     0.774133333333     0          
H10      H      0.221166666667     0.627133333333     0.783233333333     0          
C17      C      0.237146666667     0.693923333333     0.839833333333     0          
C18      C      0.233896666667     0.737533333333     0.827733333333     0          
H11      H      0.246066666667     0.763133333333     0.872533333333     0          
C19      C      0.212606666667     0.743433333333     0.749333333333     0          
H12      H      0.208866666667     0.772533333333     0.742433333333     0          
C20      C      0.260626666667     0.687243333333     0.922933333333     0          
C25      C      0.028366666667     0.800433333333     0.244533333333     0          
H18      H      0.029666666667     0.831533333333     0.230833333333     0          
C26      C      0.003866666667     0.775333333333     0.314233333333     0          
C27      C      0.004266666667     0.733433333333     0.336033333333     0          
H19      H      0.984066666667     0.712833333333     0.384333333333     0          
C28      C      0.032766666667     0.721033333333     0.290333333333     0          
H20      H      0.039266666667     0.695533333333     0.312233333333     0          
C29      C      0.052366666667     0.743233333333     0.214333333333     0          
C30      C      0.970866666667     0.788633333333     0.363833333333     0          
H21      H      0.955566666667     0.765233333333     0.414433333333     0          
H22      H      0.943866666667     0.786033333333     0.324333333333     0          
H23      H      0.990866666667     0.823633333333     0.386233333333     0          
C31      C      0.051466666667     0.784233333333     0.192333333333     0          
H24      H      0.067466666667     0.802133333333     0.139233333333     0          
C32      C      0.078666666667     0.724333333333     0.156333333333     0          
H25      H      0.075566666667     0.693633333333     0.182533333333     0          
H26      H      0.114366666667     0.750633333333     0.151633333333     0          
H27      H      0.062766666667     0.717033333333     0.097133333333     0          
O7       O      0.333366666667     0.666633333333     0.816833333333     0          
O8?      O      0.962566666667     0.822033333333     0.380533333333     0          
Zr1A     Zr     0.015806666667     0.073123333333     0.404173333333     0          
O1A      O      0.080116666667     0.149103333333     0.438103333333     0          
O2A      O      0.118096666667     0.139633333333     0.562083333333     0          
O6A      O      0.015716666667     0.072133333333     0.547833333333     0          
C1A      C      0.112886666667     0.165673333333     0.500933333333     0          
C2A      C      0.148826666667     0.221823333333     0.502633333333     0          
C3A      C      0.144166666667     0.252433333333     0.439833333333     0          
H1A      H      0.118466666667     0.237733333333     0.395333333333     0          
C4A      C      0.177066666667     0.304933333333     0.441333333333     0          
H2A      H      0.173866666667     0.325733333333     0.397233333333     0          
C5A      C      0.214286666667     0.327033333333     0.505933333333     0          
C6A      C      0.218566666667     0.296233333333     0.568933333333     0          
H3A      H      0.244166666667     0.310933333333     0.613733333333     0          
C7A      C      0.185946666667     0.244113333333     0.567333333333     0          
H4A      H      0.189166666667     0.223333333333     0.611533333333     0          
C8A      C      0.246826666667     0.383463333333     0.508333333333     0          
C9A      C      0.266016666667     0.411653333333     0.430133333333     0          
H5A      H      0.259866666667     0.394633333333     0.374133333333     0          
C10A     C      0.294056666667     0.464403333333     0.433033333333     0          
H6A      H      0.306866666667     0.483333333333     0.379333333333     0          
C11A     C      0.303256666667     0.489373333333     0.514433333333     0          
H7A      H      0.322566666667     0.525533333333     0.515933333333     0          
C12A     C      0.284566666667     0.462243333333     0.594533333333     0          
C13A     C      0.256556666667     0.409093333333     0.590033333333     0          
H8A      H      0.243866666667     0.390033333333     0.643733333333     0          
C14A     C      0.292416666667     0.489043333333     0.680733333333     0          
C15A     C      0.335536666667     0.536203333333     0.694333333333     0          
H9A      H      0.360566666667     0.550733333333     0.648533333333     0          
C16A     C      0.342556666667     0.562523333333     0.774133333333     0          
H10A     H      0.372866666667     0.594033333333     0.783233333333     0          
C17A     C      0.306076666667     0.543223333333     0.839833333333     0          
C18A     C      0.262466666667     0.496363333333     0.827733333333     0          
H11A     H      0.236866666667     0.482933333333     0.872533333333     0          
C19A     C      0.256566666667     0.469173333333     0.749333333333     0          
H12A     H      0.227466666667     0.436333333333     0.742433333333     0          
C20A     C      0.312756666667     0.573383333333     0.922933333333     0          
Zr1B     Zr     0.926876666667     0.942683333333     0.404173333333     0          
O1B      O      0.850896666667     0.931013333333     0.438103333333     0          
O2B      O      0.860366666667     0.978463333333     0.562083333333     0          
O6B      O      0.927866666667     0.943583333333     0.547833333333     0          
C1B      C      0.834326666667     0.947213333333     0.500933333333     0          
C2B      C      0.778176666667     0.927003333333     0.502633333333     0          
C3B      C      0.747566666667     0.891733333333     0.439833333333     0          
H1B      H      0.762266666667     0.880733333333     0.395333333333     0          
C4B      C      0.695066666667     0.872133333333     0.441333333333     0          
H2B      H      0.674266666667     0.848133333333     0.397233333333     0          
C5B      C      0.672966666667     0.887253333333     0.505933333333     0          
C6B      C      0.703766666667     0.922333333333     0.568933333333     0          
H3B      H      0.689066666667     0.933233333333     0.613733333333     0          
C7B      C      0.755886666667     0.941833333333     0.567333333333     0          
H4B      H      0.776666666667     0.965833333333     0.611533333333     0          
C8B      C      0.616536666667     0.863363333333     0.508333333333     0          
C9B      C      0.588346666667     0.854363333333     0.430133333333     0          
H5B      H      0.605366666667     0.865233333333     0.374133333333     0          
C10B     C      0.535596666667     0.829653333333     0.433033333333     0          
H6B      H      0.516666666667     0.823533333333     0.379333333333     0          
C11B     C      0.510626666667     0.813883333333     0.514433333333     0          
H7B      H      0.474466666667     0.797033333333     0.515933333333     0          
C12B     C      0.537756666667     0.822323333333     0.594533333333     0          
C13B     C      0.590906666667     0.847463333333     0.590033333333     0          
H8B      H      0.609966666667     0.853833333333     0.643733333333     0          
C14B     C      0.510956666667     0.803373333333     0.680733333333     0          
C15B     C      0.463796666667     0.799333333333     0.694333333333     0          
H9B      H      0.449266666667     0.809833333333     0.648533333333     0          
C16B     C      0.437476666667     0.780033333333     0.774133333333     0          
H10B     H      0.405966666667     0.778833333333     0.783233333333     0          
C17B     C      0.456776666667     0.762853333333     0.839833333333     0          
C18B     C      0.503636666667     0.766103333333     0.827733333333     0          
H11B     H      0.517066666667     0.753933333333     0.872533333333     0          
C19B     C      0.530826666667     0.787393333333     0.749333333333     0          
H12B     H      0.563666666667     0.791133333333     0.742433333333     0          
C20B     C      0.426616666667     0.739373333333     0.922933333333     0          
O2L      O      0.978463666667     0.118096333333     0.437916333333     0          
O2M      O      0.881903666667     0.860366333333     0.437916333333     0          
O2N      O      0.139633666667     0.021536333333     0.437916333333     0          
O3F      O      0.909033666667     0.975526333333     0.285976333333     0          
O3G      O      0.024473666667     0.933506333333     0.285976333333     0          
O3H      O      0.066493666667     0.090966333333     0.285976333333     0          
O4F      O      0.964293666667     0.060746333333     0.289706333333     0          
O4G      O      0.939253666667     0.903546333333     0.289706333333     0          
O4H      O      0.096453666667     0.035706333333     0.289706333333     0          
O6L      O      0.943583666667     0.015716333333     0.452166333333     0          
O6M      O      0.984283666667     0.927866333333     0.452166333333     0          
O6N      O      0.072133666667     0.056416333333     0.452166333333     0          
C25      C      0.199566666667     0.227933333333     0.244533333333     0          
H18      H      0.168466666667     0.198133333333     0.230833333333     0          
C26      C      0.224666666667     0.228533333333     0.314233333333     0          
C27      C      0.266566666667     0.270833333333     0.336033333333     0          
H19      H      0.287166666667     0.271233333333     0.384333333333     0          
C28      C      0.278966666667     0.311733333333     0.290333333333     0          
H20      H      0.304466666667     0.343733333333     0.312233333333     0          
C29      C      0.256766666667     0.309133333333     0.214333333333     0          
C30      C      0.211366666667     0.182233333333     0.363833333333     0          
H21      H      0.234766666667     0.190333333333     0.414433333333     0          
H22      H      0.213966666667     0.157833333333     0.324333333333     0          
H23      H      0.176366666667     0.167233333333     0.386233333333     0          
C31      C      0.215766666667     0.267233333333     0.192333333333     0          
H24      H      0.197866666667     0.265333333333     0.139233333333     0          
C32      C      0.275666666667     0.354333333333     0.156333333333     0          
H25      H      0.306366666667     0.381933333333     0.182533333333     0          
H26      H      0.249366666667     0.363733333333     0.151633333333     0          
H27      H      0.282966666667     0.345733333333     0.097133333333     0          
O8?      O      0.177966666667     0.140533333333     0.380533333333     0          
C25      C      0.772066666667     0.971633333333     0.244533333333     0          
H18      H      0.801866666667     0.970333333333     0.230833333333     0          
C26      C      0.771466666667     0.996133333333     0.314233333333     0          
C27      C      0.729166666667     0.995733333333     0.336033333333     0          
H19      H      0.728766666667     0.015933333333     0.384333333333     0          
C28      C      0.688266666667     0.967233333333     0.290333333333     0          
H20      H      0.656266666667     0.960733333333     0.312233333333     0          
C29      C      0.690866666667     0.947633333333     0.214333333333     0          
C30      C      0.817766666667     0.029133333333     0.363833333333     0          
H21      H      0.809666666667     0.044433333333     0.414433333333     0          
H22      H      0.842166666667     0.056133333333     0.324333333333     0          
H23      H      0.832766666667     0.009133333333     0.386233333333     0          
C31      C      0.732766666667     0.948533333333     0.192333333333     0          
H24      H      0.734666666667     0.932533333333     0.139233333333     0          
C32      C      0.645666666667     0.921333333333     0.156333333333     0          
H25      H      0.618066666667     0.924433333333     0.182533333333     0          
H26      H      0.636266666667     0.885633333333     0.151633333333     0          
H27      H      0.654266666667     0.937233333333     0.097133333333     0          
O8?      O      0.859466666667     0.037433333333     0.380533333333     0          
O1       O      0.931013333333     0.080116666667     0.561896666667     0          
O5       O      0.000033333333     0.999966666667     0.642066666667     0          
C1       C      0.947213333333     0.112886666667     0.499066666667     0          
C2       C      0.927003333333     0.148826666667     0.497366666667     0          
C3       C      0.891733333333     0.144166666667     0.560166666667     0          
H1       H      0.880733333333     0.118466666667     0.604666666667     0          
C4       C      0.872133333333     0.177066666667     0.558666666667     0          
H2       H      0.848133333333     0.173866666667     0.602766666667     0          
C5       C      0.887253333333     0.214286666667     0.494066666667     0          
C6       C      0.922333333333     0.218566666667     0.431066666667     0          
H3       H      0.933233333333     0.244166666667     0.386266666667     0          
C7       C      0.941833333333     0.185946666667     0.432666666667     0          
H4       H      0.965833333333     0.189166666667     0.388466666667     0          
C8       C      0.863363333333     0.246826666667     0.491666666667     0          
C9       C      0.854363333333     0.266016666667     0.569866666667     0          
H5       H      0.865233333333     0.259866666667     0.625866666667     0          
C10      C      0.829653333333     0.294056666667     0.566966666667     0          
H6       H      0.823533333333     0.306866666667     0.620666666667     0          
C11      C      0.813883333333     0.303256666667     0.485566666667     0          
H7       H      0.797033333333     0.322566666667     0.484066666667     0          
C12      C      0.822323333333     0.284566666667     0.405466666667     0          
C13      C      0.847463333333     0.256556666667     0.409966666667     0          
H8       H      0.853833333333     0.243866666667     0.356266666667     0          
C14      C      0.803373333333     0.292416666667     0.319266666667     0          
C15      C      0.799333333333     0.335536666667     0.305666666667     0          
H9       H      0.809833333333     0.360566666667     0.351466666667     0          
C16      C      0.780033333333     0.342556666667     0.225866666667     0          
H10      H      0.778833333333     0.372866666667     0.216766666667     0          
C17      C      0.762853333333     0.306076666667     0.160166666667     0          
C18      C      0.766103333333     0.262466666667     0.172266666667     0          
H11      H      0.753933333333     0.236866666667     0.127466666667     0          
C19      C      0.787393333333     0.256566666667     0.250666666667     0          
H12      H      0.791133333333     0.227466666667     0.257566666667     0          
C20      C      0.739373333333     0.312756666667     0.077066666667     0          
C21      C      0.784633333333     0.135966666667     0.178966666667     0          
C22      C      0.817733333333     0.138666666667     0.239566666667     0          
H13      H      0.806433333333     0.119366666667     0.293066666667     0          
C23      C      0.866133333333     0.168466666667     0.224266666667     0          
H14      H      0.890133333333     0.168966666667     0.265466666667     0          
C24      C      0.733733333333     0.103566666667     0.202666666667     0          
H15      H      0.732233333333     0.086066666667     0.258666666667     0          
H16      H      0.716833333333     0.123566666667     0.210866666667     0          
H17      H      0.716633333333     0.078466666667     0.155166666667     0          
C25      C      0.971633333333     0.199566666667     0.755466666667     0          
H18      H      0.970333333333     0.168466666667     0.769166666667     0          
C26      C      0.996133333333     0.224666666667     0.685766666667     0          
C27      C      0.995733333333     0.266566666667     0.663966666667     0          
H19      H      0.015933333333     0.287166666667     0.615666666667     0          
C28      C      0.967233333333     0.278966666667     0.709666666667     0          
H20      H      0.960733333333     0.304466666667     0.687766666667     0          
C29      C      0.947633333333     0.256766666667     0.785666666667     0          
C30      C      0.029133333333     0.211366666667     0.636166666667     0          
H21      H      0.044433333333     0.234766666667     0.585566666667     0          
H22      H      0.056133333333     0.213966666667     0.675666666667     0          
H23      H      0.009133333333     0.176366666667     0.613766666667     0          
C31      C      0.948533333333     0.215766666667     0.807666666667     0          
H24      H      0.932533333333     0.197866666667     0.860766666667     0          
C32      C      0.921333333333     0.275666666667     0.843666666667     0          
H25      H      0.924433333333     0.306366666667     0.817466666667     0          
H26      H      0.885633333333     0.249366666667     0.848366666667     0          
H27      H      0.937233333333     0.282966666667     0.902866666667     0          
O7       O      0.666633333333     0.333366666667     0.183166666667     0          
O8?      O      0.037433333333     0.177966666667     0.619466666667     0          
O1A      O      0.919883333333     0.850896666667     0.561896666667     0          
C1A      C      0.887113333333     0.834326666667     0.499066666667     0          
C2A      C      0.851173333333     0.778176666667     0.497366666667     0          
C3A      C      0.855833333333     0.747566666667     0.560166666667     0          
H1A      H      0.881533333333     0.762266666667     0.604666666667     0          
C4A      C      0.822933333333     0.695066666667     0.558666666667     0          
H2A      H      0.826133333333     0.674266666667     0.602766666667     0          
C5A      C      0.785713333333     0.672966666667     0.494066666667     0          
C6A      C      0.781433333333     0.703766666667     0.431066666667     0          
H3A      H      0.755833333333     0.689066666667     0.386266666667     0          
C7A      C      0.814053333333     0.755886666667     0.432666666667     0          
H4A      H      0.810833333333     0.776666666667     0.388466666667     0          
C8A      C      0.753173333333     0.616536666667     0.491666666667     0          
C9A      C      0.733983333333     0.588346666667     0.569866666667     0          
H5A      H      0.740133333333     0.605366666667     0.625866666667     0          
C10A     C      0.705943333333     0.535596666667     0.566966666667     0          
H6A      H      0.693133333333     0.516666666667     0.620666666667     0          
C11A     C      0.696743333333     0.510626666667     0.485566666667     0          
H7A      H      0.677433333333     0.474466666667     0.484066666667     0          
C12A     C      0.715433333333     0.537756666667     0.405466666667     0          
C13A     C      0.743443333333     0.590906666667     0.409966666667     0          
H8A      H      0.756133333333     0.609966666667     0.356266666667     0          
C14A     C      0.707583333333     0.510956666667     0.319266666667     0          
C15A     C      0.664463333333     0.463796666667     0.305666666667     0          
H9A      H      0.639433333333     0.449266666667     0.351466666667     0          
C16A     C      0.657443333333     0.437476666667     0.225866666667     0          
H10A     H      0.627133333333     0.405966666667     0.216766666667     0          
C17A     C      0.693923333333     0.456776666667     0.160166666667     0          
C18A     C      0.737533333333     0.503636666667     0.172266666667     0          
H11A     H      0.763133333333     0.517066666667     0.127466666667     0          
C19A     C      0.743433333333     0.530826666667     0.250666666667     0          
H12A     H      0.772533333333     0.563666666667     0.257566666667     0          
C20A     C      0.687243333333     0.426616666667     0.077066666667     0          
O1B      O      0.149103333333     0.068986666667     0.561896666667     0          
C1B      C      0.165673333333     0.052786666667     0.499066666667     0          
C2B      C      0.221823333333     0.072996666667     0.497366666667     0          
C3B      C      0.252433333333     0.108266666667     0.560166666667     0          
H1B      H      0.237733333333     0.119266666667     0.604666666667     0          
C4B      C      0.304933333333     0.127866666667     0.558666666667     0          
H2B      H      0.325733333333     0.151866666667     0.602766666667     0          
C5B      C      0.327033333333     0.112746666667     0.494066666667     0          
C6B      C      0.296233333333     0.077666666667     0.431066666667     0          
H3B      H      0.310933333333     0.066766666667     0.386266666667     0          
C7B      C      0.244113333333     0.058166666667     0.432666666667     0          
H4B      H      0.223333333333     0.034166666667     0.388466666667     0          
C8B      C      0.383463333333     0.136636666667     0.491666666667     0          
C9B      C      0.411653333333     0.145636666667     0.569866666667     0          
H5B      H      0.394633333333     0.134766666667     0.625866666667     0          
C10B     C      0.464403333333     0.170346666667     0.566966666667     0          
H6B      H      0.483333333333     0.176466666667     0.620666666667     0          
C11B     C      0.489373333333     0.186116666667     0.485566666667     0          
H7B      H      0.525533333333     0.202966666667     0.484066666667     0          
C12B     C      0.462243333333     0.177676666667     0.405466666667     0          
C13B     C      0.409093333333     0.152536666667     0.409966666667     0          
H8B      H      0.390033333333     0.146166666667     0.356266666667     0          
C14B     C      0.489043333333     0.196626666667     0.319266666667     0          
C15B     C      0.536203333333     0.200666666667     0.305666666667     0          
H9B      H      0.550733333333     0.190166666667     0.351466666667     0          
C16B     C      0.562523333333     0.219966666667     0.225866666667     0          
H10B     H      0.594033333333     0.221166666667     0.216766666667     0          
C17B     C      0.543223333333     0.237146666667     0.160166666667     0          
C18B     C      0.496363333333     0.233896666667     0.172266666667     0          
H11B     H      0.482933333333     0.246066666667     0.127466666667     0          
C19B     C      0.469173333333     0.212606666667     0.250666666667     0          
H12B     H      0.436333333333     0.208866666667     0.257566666667     0          
C20B     C      0.573383333333     0.260626666667     0.077066666667     0          
C21I     C      0.882033333333     0.197366666667     0.154366666667     0          
C22I     C      0.848933333333     0.194666666667     0.093766666667     0          
H13I     H      0.860233333333     0.213966666667     0.040266666667     0          
C23I     C      0.800533333333     0.164866666667     0.109066666667     0          
H14I     H      0.776533333333     0.164366666667     0.067866666667     0          
C24I     C      0.932933333333     0.229766666667     0.130666666667     0          
H15I     H      0.934433333333     0.247266666667     0.074666666667     0          
H16I     H      0.949833333333     0.209766666667     0.122466666667     0          
H17I     H      0.950033333333     0.254866666667     0.178166666667     0          
C21      C      0.864033333333     0.648666666667     0.178966666667     0          
C22      C      0.861333333333     0.679066666667     0.239566666667     0          
H13      H      0.880633333333     0.687066666667     0.293066666667     0          
C23      C      0.831533333333     0.697666666667     0.224266666667     0          
H14      H      0.831033333333     0.721166666667     0.265466666667     0          
C24      C      0.896433333333     0.630166666667     0.202666666667     0          
H15      H      0.913933333333     0.646166666667     0.258666666667     0          
H16      H      0.876433333333     0.593266666667     0.210866666667     0          
H17      H      0.921533333333     0.638166666667     0.155166666667     0          
C25      C      0.800433333333     0.772066666667     0.755466666667     0          
H18      H      0.831533333333     0.801866666667     0.769166666667     0          
C26      C      0.775333333333     0.771466666667     0.685766666667     0          
C27      C      0.733433333333     0.729166666667     0.663966666667     0          
H19      H      0.712833333333     0.728766666667     0.615666666667     0          
C28      C      0.721033333333     0.688266666667     0.709666666667     0          
H20      H      0.695533333333     0.656266666667     0.687766666667     0          
C29      C      0.743233333333     0.690866666667     0.785666666667     0          
C30      C      0.788633333333     0.817766666667     0.636166666667     0          
H21      H      0.765233333333     0.809666666667     0.585566666667     0          
H22      H      0.786033333333     0.842166666667     0.675666666667     0          
H23      H      0.823633333333     0.832766666667     0.613766666667     0          
C31      C      0.784233333333     0.732766666667     0.807666666667     0          
H24      H      0.802133333333     0.734666666667     0.860766666667     0          
C32      C      0.724333333333     0.645666666667     0.843666666667     0          
H25      H      0.693633333333     0.618066666667     0.817466666667     0          
H26      H      0.750633333333     0.636266666667     0.848366666667     0          
H27      H      0.717033333333     0.654266666667     0.902866666667     0          
O8?      O      0.822033333333     0.859466666667     0.619466666667     0          
C21I     C      0.802633333333     0.684666666667     0.154366666667     0          
C22I     C      0.805333333333     0.654266666667     0.093766666667     0          
H13I     H      0.786033333333     0.646266666667     0.040266666667     0          
C23I     C      0.835133333333     0.635666666667     0.109066666667     0          
H14I     H      0.835633333333     0.612166666667     0.067866666667     0          
C24I     C      0.770233333333     0.703166666667     0.130666666667     0          
H15I     H      0.752733333333     0.687166666667     0.074666666667     0          
H16I     H      0.790233333333     0.740066666667     0.122466666667     0          
H17I     H      0.745133333333     0.695166666667     0.178166666667     0          
C21      C      0.351333333333     0.215366666667     0.178966666667     0          
C22      C      0.320933333333     0.182266666667     0.239566666667     0          
H13      H      0.312933333333     0.193566666667     0.293066666667     0          
C23      C      0.302333333333     0.133866666667     0.224266666667     0          
H14      H      0.278833333333     0.109866666667     0.265466666667     0          
C24      C      0.369833333333     0.266266666667     0.202666666667     0          
H15      H      0.353833333333     0.267766666667     0.258666666667     0          
H16      H      0.406733333333     0.283166666667     0.210866666667     0          
H17      H      0.361833333333     0.283366666667     0.155166666667     0          
C25      C      0.227933333333     0.028366666667     0.755466666667     0          
H18      H      0.198133333333     0.029666666667     0.769166666667     0          
C26      C      0.228533333333     0.003866666667     0.685766666667     0          
C27      C      0.270833333333     0.004266666667     0.663966666667     0          
H19      H      0.271233333333     0.984066666667     0.615666666667     0          
C28      C      0.311733333333     0.032766666667     0.709666666667     0          
H20      H      0.343733333333     0.039266666667     0.687766666667     0          
C29      C      0.309133333333     0.052366666667     0.785666666667     0          
C30      C      0.182233333333     0.970866666667     0.636166666667     0          
H21      H      0.190333333333     0.955566666667     0.585566666667     0          
H22      H      0.157833333333     0.943866666667     0.675666666667     0          
H23      H      0.167233333333     0.990866666667     0.613766666667     0          
C31      C      0.267233333333     0.051466666667     0.807666666667     0          
H24      H      0.265333333333     0.067466666667     0.860766666667     0          
C32      C      0.354333333333     0.078666666667     0.843666666667     0          
H25      H      0.381933333333     0.075566666667     0.817466666667     0          
H26      H      0.363733333333     0.114366666667     0.848366666667     0          
H27      H      0.345733333333     0.062766666667     0.902866666667     0          
O8?      O      0.140533333333     0.962566666667     0.619466666667     0          
C21I     C      0.315333333333     0.117966666667     0.154366666667     0          
C22I     C      0.345733333333     0.151066666667     0.093766666667     0          
H13I     H      0.353733333333     0.139766666667     0.040266666667     0          
C23I     C      0.364333333333     0.199466666667     0.109066666667     0          
H14I     H      0.387833333333     0.223466666667     0.067866666667     0          
C24I     C      0.296833333333     0.067066666667     0.130666666667     0          
H15I     H      0.312833333333     0.065566666667     0.074666666667     0          
H16I     H      0.259933333333     0.050166666667     0.122466666667     0          
H17I     H      0.304833333333     0.049966666667     0.178166666667     0          
O1       O      0.735653333333     0.253216666667     0.771436666667     0          
O5       O      0.666633333333     0.333366666667     0.691266666667     0          
C1       C      0.719453333333     0.220446666667     0.834266666667     0          
C2       C      0.739663333333     0.184506666667     0.835966666667     0          
C3       C      0.774933333333     0.189166666667     0.773166666667     0          
H1       H      0.785933333333     0.214866666667     0.728666666667     0          
C4       C      0.794533333333     0.156266666667     0.774666666667     0          
H2       H      0.818533333333     0.159466666667     0.730566666667     0          
C5       C      0.779413333333     0.119046666667     0.839266666667     0          
C6       C      0.744333333333     0.114766666667     0.902266666667     0          
H3       H      0.733433333333     0.089166666667     0.947066666667     0          
C7       C      0.724833333333     0.147386666667     0.900666666667     0          
H4       H      0.700833333333     0.144166666667     0.944866666667     0          
C8       C      0.803303333333     0.086506666667     0.841666666667     0          
C9       C      0.812303333333     0.067316666667     0.763466666667     0          
H5       H      0.801433333333     0.073466666667     0.707466666667     0          
C10      C      0.837013333333     0.039276666667     0.766366666667     0          
H6       H      0.843133333333     0.026466666667     0.712666666667     0          
C11      C      0.852783333333     0.030076666667     0.847766666667     0          
H7       H      0.869633333333     0.010766666667     0.849266666667     0          
C12      C      0.844343333333     0.048766666667     0.927866666667     0          
C13      C      0.819203333333     0.076776666667     0.923366666667     0          
H8       H      0.812833333333     0.089466666667     0.977066666667     0          
C14      C      0.863293333333     0.040916666667     0.014066666667     0          
C15      C      0.867333333333     0.997796666667     0.027666666667     0          
H9       H      0.856833333333     0.972766666667     0.981866666667     0          
C16      C      0.886633333333     0.990776666667     0.107466666667     0          
H10      H      0.887833333333     0.960466666667     0.116566666667     0          
C17      C      0.903813333333     0.027256666667     0.173166666667     0          
C18      C      0.900563333333     0.070866666667     0.161066666667     0          
H11      H      0.912733333333     0.096466666667     0.205866666667     0          
C19      C      0.879273333333     0.076766666667     0.082666666667     0          
H12      H      0.875533333333     0.105866666667     0.075766666667     0          
C20      C      0.927293333333     0.020576666667     0.256266666667     0          
C25      C      0.695033333333     0.133766666667     0.577866666667     0          
H18      H      0.696333333333     0.164866666667     0.564166666667     0          
C26      C      0.670533333333     0.108666666667     0.647566666667     0          
C27      C      0.670933333333     0.066766666667     0.669366666667     0          
H19      H      0.650733333333     0.046166666667     0.717666666667     0          
C28      C      0.699433333333     0.054366666667     0.623666666667     0          
H20      H      0.705933333333     0.028866666667     0.645566666667     0          
C29      C      0.719033333333     0.076566666667     0.547666666667     0          
C30      C      0.637533333333     0.121966666667     0.697166666667     0          
H21      H      0.622233333333     0.098566666667     0.747766666667     0          
H22      H      0.610533333333     0.119366666667     0.657666666667     0          
H23      H      0.657533333333     0.156966666667     0.719566666667     0          
C31      C      0.718133333333     0.117566666667     0.525666666667     0          
H24      H      0.734133333333     0.135466666667     0.472566666667     0          
C32      C      0.745333333333     0.057666666667     0.489666666667     0          
H25      H      0.742233333333     0.026966666667     0.515866666667     0          
H26      H      0.781033333333     0.083966666667     0.484966666667     0          
H27      H      0.729433333333     0.050366666667     0.430466666667     0          
O7       O      0.000033333333     0.999966666667     0.150166666667     0          
O8?      O      0.629233333333     0.155366666667     0.713866666667     0          
O1A      O      0.746783333333     0.482436666667     0.771436666667     0          
C1A      C      0.779553333333     0.499006666667     0.834266666667     0          
C2A      C      0.815493333333     0.555156666667     0.835966666667     0          
C3A      C      0.810833333333     0.585766666667     0.773166666667     0          
H1A      H      0.785133333333     0.571066666667     0.728666666667     0          
C4A      C      0.843733333333     0.638266666667     0.774666666667     0          
H2A      H      0.840533333333     0.659066666667     0.730566666667     0          
C5A      C      0.880953333333     0.660366666667     0.839266666667     0          
C6A      C      0.885233333333     0.629566666667     0.902266666667     0          
H3A      H      0.910833333333     0.644266666667     0.947066666667     0          
C7A      C      0.852613333333     0.577446666667     0.900666666667     0          
H4A      H      0.855833333333     0.556666666667     0.944866666667     0          
C8A      C      0.913493333333     0.716796666667     0.841666666667     0          
C9A      C      0.932683333333     0.744986666667     0.763466666667     0          
H5A      H      0.926533333333     0.727966666667     0.707466666667     0          
C10A     C      0.960723333333     0.797736666667     0.766366666667     0          
H6A      H      0.973533333333     0.816666666667     0.712666666667     0          
C11A     C      0.969923333333     0.822706666667     0.847766666667     0          
H7A      H      0.989233333333     0.858866666667     0.849266666667     0          
C12A     C      0.951233333333     0.795576666667     0.927866666667     0          
C13A     C      0.923223333333     0.742426666667     0.923366666667     0          
H8A      H      0.910533333333     0.723366666667     0.977066666667     0          
C14A     C      0.959083333333     0.822376666667     0.014066666667     0          
C15A     C      0.002203333333     0.869536666667     0.027666666667     0          
H9A      H      0.027233333333     0.884066666667     0.981866666667     0          
C16A     C      0.009223333333     0.895856666667     0.107466666667     0          
H10A     H      0.039533333333     0.927366666667     0.116566666667     0          
C17A     C      0.972743333333     0.876556666667     0.173166666667     0          
C18A     C      0.929133333333     0.829696666667     0.161066666667     0          
H11A     H      0.903533333333     0.816266666667     0.205866666667     0          
C19A     C      0.923233333333     0.802506666667     0.082666666667     0          
H12A     H      0.894133333333     0.769666666667     0.075766666667     0          
C20A     C      0.979423333333     0.906716666667     0.256266666667     0          
O1B      O      0.517563333333     0.264346666667     0.771436666667     0          
C1B      C      0.500993333333     0.280546666667     0.834266666667     0          
C2B      C      0.444843333333     0.260336666667     0.835966666667     0          
C3B      C      0.414233333333     0.225066666667     0.773166666667     0          
H1B      H      0.428933333333     0.214066666667     0.728666666667     0          
C4B      C      0.361733333333     0.205466666667     0.774666666667     0          
H2B      H      0.340933333333     0.181466666667     0.730566666667     0          
C5B      C      0.339633333333     0.220586666667     0.839266666667     0          
C6B      C      0.370433333333     0.255666666667     0.902266666667     0          
H3B      H      0.355733333333     0.266566666667     0.947066666667     0          
C7B      C      0.422553333333     0.275166666667     0.900666666667     0          
H4B      H      0.443333333333     0.299166666667     0.944866666667     0          
C8B      C      0.283203333333     0.196696666667     0.841666666667     0          
C9B      C      0.255013333333     0.187696666667     0.763466666667     0          
H5B      H      0.272033333333     0.198566666667     0.707466666667     0          
C10B     C      0.202263333333     0.162986666667     0.766366666667     0          
H6B      H      0.183333333333     0.156866666667     0.712666666667     0          
C11B     C      0.177293333333     0.147216666667     0.847766666667     0          
H7B      H      0.141133333333     0.130366666667     0.849266666667     0          
C12B     C      0.204423333333     0.155656666667     0.927866666667     0          
C13B     C      0.257573333333     0.180796666667     0.923366666667     0          
H8B      H      0.276633333333     0.187166666667     0.977066666667     0          
C14B     C      0.177623333333     0.136706666667     0.014066666667     0          
C15B     C      0.130463333333     0.132666666667     0.027666666667     0          
H9B      H      0.115933333333     0.143166666667     0.981866666667     0          
C16B     C      0.104143333333     0.113366666667     0.107466666667     0          
H10B     H      0.072633333333     0.112166666667     0.116566666667     0          
C17B     C      0.123443333333     0.096186666667     0.173166666667     0          
C18B     C      0.170303333333     0.099436666667     0.161066666667     0          
H11B     H      0.183733333333     0.087266666667     0.205866666667     0          
C19B     C      0.197493333333     0.120726666667     0.082666666667     0          
H12B     H      0.230333333333     0.124466666667     0.075766666667     0          
C20B     C      0.093283333333     0.072706666667     0.256266666667     0          
C25      C      0.866233333333     0.561266666667     0.577866666667     0          
H18      H      0.835133333333     0.531466666667     0.564166666667     0          
C26      C      0.891333333333     0.561866666667     0.647566666667     0          
C27      C      0.933233333333     0.604166666667     0.669366666667     0          
H19      H      0.953833333333     0.604566666667     0.717666666667     0          
C28      C      0.945633333333     0.645066666667     0.623666666667     0          
H20      H      0.971133333333     0.677066666667     0.645566666667     0          
C29      C      0.923433333333     0.642466666667     0.547666666667     0          
C30      C      0.878033333333     0.515566666667     0.697166666667     0          
H21      H      0.901433333333     0.523666666667     0.747766666667     0          
H22      H      0.880633333333     0.491166666667     0.657666666667     0          
H23      H      0.843033333333     0.500566666667     0.719566666667     0          
C31      C      0.882433333333     0.600566666667     0.525666666667     0          
H24      H      0.864533333333     0.598666666667     0.472566666667     0          
C32      C      0.942333333333     0.687666666667     0.489666666667     0          
H25      H      0.973033333333     0.715266666667     0.515866666667     0          
H26      H      0.916033333333     0.697066666667     0.484966666667     0          
H27      H      0.949633333333     0.679066666667     0.430466666667     0          
O8?      O      0.844633333333     0.473866666667     0.713866666667     0          
C25      C      0.438733333333     0.304966666667     0.577866666667     0          
H18      H      0.468533333333     0.303666666667     0.564166666667     0          
C26      C      0.438133333333     0.329466666667     0.647566666667     0          
C27      C      0.395833333333     0.329066666667     0.669366666667     0          
H19      H      0.395433333333     0.349266666667     0.717666666667     0          
C28      C      0.354933333333     0.300566666667     0.623666666667     0          
H20      H      0.322933333333     0.294066666667     0.645566666667     0          
C29      C      0.357533333333     0.280966666667     0.547666666667     0          
C30      C      0.484433333333     0.362466666667     0.697166666667     0          
H21      H      0.476333333333     0.377766666667     0.747766666667     0          
H22      H      0.508833333333     0.389466666667     0.657666666667     0          
H23      H      0.499433333333     0.342466666667     0.719566666667     0          
C31      C      0.399433333333     0.281866666667     0.525666666667     0          
H24      H      0.401333333333     0.265866666667     0.472566666667     0          
C32      C      0.312333333333     0.254666666667     0.489666666667     0          
H25      H      0.284733333333     0.257766666667     0.515866666667     0          
H26      H      0.302933333333     0.218966666667     0.484966666667     0          
H27      H      0.320933333333     0.270566666667     0.430466666667     0          
O8?      O      0.526133333333     0.370766666667     0.713866666667     0          


