data_BIKNUH

_audit_creation_method RASPA-1.0
_audit_creation_date 2020-4-3
_audit_author_name 'Rocio Bueno-Perez'

_cell_length_a    36.1839
_cell_length_b    36.1839
_cell_length_c    12.4708
_cell_angle_alpha 90
_cell_angle_beta  90
_cell_angle_gamma 120
_cell_volume      14140.2

_symmetry_cell_setting          trigonal
_symmetry_space_group_name_Hall 'P 1'
_symmetry_space_group_name_H-M  'P 1'
_symmetry_Int_Tables_number     1

_symmetry_equiv_pos_as_xyz 'x,y,z'

loop_
_atom_site_label
_atom_site_type_symbol
_atom_site_fract_x
_atom_site_fract_y
_atom_site_fract_z
_atom_site_charge
Zr1      Zr     0.725430000000     0.386030000000     0.447990000000     0          
O1       O      0.709930000000     0.414770000000     0.581600000000     0          
O2       O      0.638290000000     0.384530000000     0.587500000000     0          
O3       O      0.910280000000     0.877800000000     0.930300000000     0          
O4       O      0.945330000000     0.875170000000     0.077000000000     0          
O5       O      0.666670000000     0.333330000000     0.504100000000     0          
O6       O      0.724200000000     0.384800000000     0.278100000000     0          
C1       C      0.675510000000     0.412280000000     0.614800000000     0          
C2       C      0.681070000000     0.445850000000     0.692800000000     0          
C3       C      0.720410000000     0.483760000000     0.697400000000     0          
H1       H      0.742420000000     0.488710000000     0.648100000000     0          
C4       C      0.727000000000     0.514060000000     0.774700000000     0          
H2       H      0.753500000000     0.540050000000     0.776820000000     0          
C5       C      0.695760000000     0.507130000000     0.848700000000     0          
C6       C      0.656000000000     0.470300000000     0.839900000000     0          
H3       H      0.633850000000     0.465720000000     0.888400000000     0          
C7       C      0.648400000000     0.440000000000     0.760500000000     0          
H4       H      0.620820000000     0.415570000000     0.753120000000     0          
C8       C      0.705410000000     0.538040000000     0.938100000000     0          
C9       C      0.732820000000     0.580780000000     0.922600000000     0          
H5       H      0.743780000000     0.590980000000     0.852950000000     0          
C10      C      0.745040000000     0.609960000000     0.009000000000     0          
C11      C      0.728100000000     0.595240000000     0.112700000000     0          
C12      C      0.698900000000     0.550900000000     0.126600000000     0          
H6       H      0.686610000000     0.540410000000     0.195060000000     0          
C13      C      0.688400000000     0.523320000000     0.042500000000     0          
H7       H      0.669290000000     0.493740000000     0.053760000000     0          
C14      C      0.775080000000     0.654010000000     0.994600000000     0          
H8       H      0.786290000000     0.664170000000     0.925110000000     0          
C15      C      0.788200000000     0.682160000000     0.078800000000     0          
C16      C      0.771000000000     0.666700000000     0.182300000000     0          
H9       H      0.780180000000     0.685790000000     0.241330000000     0          
C17      C      0.741600000000     0.624700000000     0.198200000000     0          
H10      H      0.730060000000     0.615160000000     0.267740000000     0          
C18      C      0.820430000000     0.727440000000     0.062000000000     0          
C19      C      0.821090000000     0.747860000000     0.966500000000     0          
H11      H      0.800240000000     0.732700000000     0.912910000000     0          
C20      C      0.852270000000     0.790560000000     0.948900000000     0          
H12      H      0.852560000000     0.804120000000     0.883450000000     0          
C21      C      0.882570000000     0.812950000000     0.026500000000     0          
C22      C      0.882000000000     0.793060000000     0.122200000000     0          
H13      H      0.902740000000     0.808530000000     0.175650000000     0          
C23      C      0.851200000000     0.750620000000     0.140500000000     0          
H14      H      0.851010000000     0.737340000000     0.206360000000     0          
C24      C      0.915350000000     0.859000000000     0.008900000000     0          
Cl1      Cl     0.658160000000     0.707560000000     0.460800000000     0          
Cl2      Cl     0.684060000000     0.644220000000     0.432100000000     0          
C25      C      0.653600000000     0.665700000000     0.385100000000     0          
H15      H      0.662370000000     0.675710000000     0.310610000000     0          
H16      H      0.623290000000     0.642970000000     0.383510000000     0          
Cl3      Cl     0.830120000000     0.737180000000     0.674100000000     0          
Cl4      Cl     0.820810000000     0.728600000000     0.447900000000     0          
C26      C      0.794900000000     0.726700000000     0.562100000000     0          
H17      H      0.769180000000     0.698210000000     0.570050000000     0          
H18      H      0.785740000000     0.748300000000     0.559620000000     0          
C27      C      0.679500000000     0.539700000000     0.545800000000     0          
H19      H      0.673200000000     0.513730000000     0.586390000000     0          
H20      H      0.654510000000     0.533170000000     0.500250000000     0          
Cl5      Cl     0.690400000000     0.583700000000     0.639200000000     0          
Cl6      Cl     0.723800000000     0.555900000000     0.468000000000     0          
H21?     H      0.657570000000     0.543970000000     0.509250000000     0          
H22?     H      0.665010000000     0.518100000000     0.602650000000     0          
Cl7?     Cl     0.713800000000     0.583700000000     0.600200000000     0          
Cl8?     Cl     0.703300000000     0.519000000000     0.446800000000     0          
Cl9?     Cl     0.701900000000     0.327500000000     0.863600000000     0          
C29?     C      0.666670000000     0.333330000000     0.777000000000     0          
H23?     H      0.678010000000     0.343080000000     0.703880000000     0          
H24?     H      0.637490000000     0.308270000000     0.774980000000     0          
Zr1A     Zr     0.613970000000     0.339400000000     0.447990000000     0          
O1A      O      0.585230000000     0.295160000000     0.581600000000     0          
O2A      O      0.615470000000     0.253760000000     0.587500000000     0          
O3A      O      0.122200000000     0.032480000000     0.930300000000     0          
O4A      O      0.124830000000     0.070160000000     0.077000000000     0          
O6A      O      0.615200000000     0.339400000000     0.278100000000     0          
C1A      C      0.587720000000     0.263230000000     0.614800000000     0          
C2A      C      0.554150000000     0.235220000000     0.692800000000     0          
C3A      C      0.516240000000     0.236650000000     0.697400000000     0          
H1A      H      0.511290000000     0.253710000000     0.648100000000     0          
C4A      C      0.485940000000     0.212940000000     0.774700000000     0          
H2A      H      0.459950000000     0.213450000000     0.776820000000     0          
C5A      C      0.492870000000     0.188630000000     0.848700000000     0          
C6A      C      0.529700000000     0.185700000000     0.839900000000     0          
H3A      H      0.534280000000     0.168130000000     0.888400000000     0          
C7A      C      0.560000000000     0.208400000000     0.760500000000     0          
H4A      H      0.584430000000     0.205250000000     0.753120000000     0          
C8A      C      0.461960000000     0.167370000000     0.938100000000     0          
C9A      C      0.419220000000     0.152040000000     0.922600000000     0          
H5A      H      0.409020000000     0.152810000000     0.852950000000     0          
C10A     C      0.390040000000     0.135080000000     0.009000000000     0          
C11A     C      0.404760000000     0.132860000000     0.112700000000     0          
C12A     C      0.449100000000     0.148000000000     0.126600000000     0          
H6A      H      0.459590000000     0.146200000000     0.195060000000     0          
C13A     C      0.476680000000     0.165080000000     0.042500000000     0          
H7A      H      0.506260000000     0.175550000000     0.053760000000     0          
C14A     C      0.345990000000     0.121070000000     0.994600000000     0          
H8A      H      0.335830000000     0.122120000000     0.925110000000     0          
C15A     C      0.317840000000     0.106040000000     0.078800000000     0          
C16A     C      0.333300000000     0.104300000000     0.182300000000     0          
H9A      H      0.314210000000     0.094390000000     0.241330000000     0          
C17A     C      0.375300000000     0.116900000000     0.198200000000     0          
H10A     H      0.384840000000     0.114900000000     0.267740000000     0          
C18A     C      0.272560000000     0.092990000000     0.062000000000     0          
C19A     C      0.252140000000     0.073230000000     0.966500000000     0          
H11A     H      0.267300000000     0.067540000000     0.912910000000     0          
C20A     C      0.209440000000     0.061710000000     0.948900000000     0          
H12A     H      0.195880000000     0.048440000000     0.883450000000     0          
C21A     C      0.187050000000     0.069620000000     0.026500000000     0          
C22A     C      0.206940000000     0.088940000000     0.122200000000     0          
H13A     H      0.191470000000     0.094210000000     0.175650000000     0          
C23A     C      0.249380000000     0.100580000000     0.140500000000     0          
H14A     H      0.262660000000     0.113670000000     0.206360000000     0          
C24A     C      0.141000000000     0.056350000000     0.008900000000     0          
Zr1B     Zr     0.660600000000     0.274570000000     0.447990000000     0          
O1B      O      0.704840000000     0.290070000000     0.581600000000     0          
O2B      O      0.746240000000     0.361710000000     0.587500000000     0          
O3B      O      0.967520000000     0.089720000000     0.930300000000     0          
O4B      O      0.929840000000     0.054670000000     0.077000000000     0          
O6B      O      0.660600000000     0.275800000000     0.278100000000     0          
C1B      C      0.736770000000     0.324490000000     0.614800000000     0          
C2B      C      0.764780000000     0.318930000000     0.692800000000     0          
C3B      C      0.763350000000     0.279590000000     0.697400000000     0          
H1B      H      0.746290000000     0.257580000000     0.648100000000     0          
C4B      C      0.787060000000     0.273000000000     0.774700000000     0          
H2B      H      0.786550000000     0.246500000000     0.776820000000     0          
C5B      C      0.811370000000     0.304240000000     0.848700000000     0          
C6B      C      0.814300000000     0.344000000000     0.839900000000     0          
H3B      H      0.831870000000     0.366150000000     0.888400000000     0          
C7B      C      0.791600000000     0.351600000000     0.760500000000     0          
H4B      H      0.794750000000     0.379180000000     0.753120000000     0          
C8B      C      0.832630000000     0.294590000000     0.938100000000     0          
C9B      C      0.847960000000     0.267180000000     0.922600000000     0          
H5B      H      0.847190000000     0.256220000000     0.852950000000     0          
C10B     C      0.864920000000     0.254960000000     0.009000000000     0          
C11B     C      0.867140000000     0.271900000000     0.112700000000     0          
C12B     C      0.852000000000     0.301100000000     0.126600000000     0          
H6B      H      0.853800000000     0.313390000000     0.195060000000     0          
C13B     C      0.834920000000     0.311600000000     0.042500000000     0          
H7B      H      0.824450000000     0.330710000000     0.053760000000     0          
C14B     C      0.878930000000     0.224920000000     0.994600000000     0          
H8B      H      0.877880000000     0.213710000000     0.925110000000     0          
C15B     C      0.893960000000     0.211800000000     0.078800000000     0          
C16B     C      0.895700000000     0.229000000000     0.182300000000     0          
H9B      H      0.905610000000     0.219820000000     0.241330000000     0          
C17B     C      0.883100000000     0.258400000000     0.198200000000     0          
H10B     H      0.885100000000     0.269940000000     0.267740000000     0          
C18B     C      0.907010000000     0.179570000000     0.062000000000     0          
C19B     C      0.926770000000     0.178910000000     0.966500000000     0          
H11B     H      0.932460000000     0.199760000000     0.912910000000     0          
C20B     C      0.938290000000     0.147730000000     0.948900000000     0          
H12B     H      0.951560000000     0.147440000000     0.883450000000     0          
C21B     C      0.930380000000     0.117430000000     0.026500000000     0          
C22B     C      0.911060000000     0.118000000000     0.122200000000     0          
H13B     H      0.905790000000     0.097260000000     0.175650000000     0          
C23B     C      0.899420000000     0.148800000000     0.140500000000     0          
H14B     H      0.886330000000     0.148990000000     0.206360000000     0          
C24B     C      0.943650000000     0.084650000000     0.008900000000     0          
Zr1F     Zr     0.058763000000     0.052697000000     0.114657000000     0          
Zr1G     Zr     0.947303000000     0.006067000000     0.114657000000     0          
Zr1H     Zr     0.993933000000     0.941237000000     0.114657000000     0          
Zr1O     Zr     0.941237000000     0.947303000000     0.885343000000     0          
Zr1P     Zr     0.052697000000     0.993933000000     0.885343000000     0          
Zr1Q     Zr     0.006067000000     0.058763000000     0.885343000000     0          
Zr1L     Zr     0.607903000000     0.280637000000     0.218677000000     0          
Zr1M     Zr     0.719363000000     0.327267000000     0.218677000000     0          
Zr1N     Zr     0.672733000000     0.392097000000     0.218677000000     0          
O3O      O      0.756387000000     0.455533000000     0.403033000000     0          
O3P      O      0.544467000000     0.300853000000     0.403033000000     0          
O3Q      O      0.699147000000     0.243613000000     0.403033000000     0          
O4C      O      0.611997000000     0.208503000000     0.410333000000     0          
O4D      O      0.791497000000     0.403493000000     0.410333000000     0          
O4E      O      0.596507000000     0.388003000000     0.410333000000     0          
O6L      O      0.609133000000     0.281867000000     0.388567000000     0          
O6M      O      0.718133000000     0.327267000000     0.388567000000     0          
O6N      O      0.672733000000     0.390867000000     0.388567000000     0          
Cl1      Cl     0.292440000000     0.950600000000     0.460800000000     0          
Cl2      Cl     0.355780000000     0.039840000000     0.432100000000     0          
C25      C      0.334300000000     0.987900000000     0.385100000000     0          
H15      H      0.324290000000     0.986660000000     0.310610000000     0          
H16      H      0.357030000000     0.980320000000     0.383510000000     0          
Cl3      Cl     0.262820000000     0.092940000000     0.674100000000     0          
Cl4      Cl     0.271400000000     0.092210000000     0.447900000000     0          
C26      C      0.273300000000     0.068200000000     0.562100000000     0          
H17      H      0.301790000000     0.070970000000     0.570050000000     0          
H18      H      0.251700000000     0.037440000000     0.559620000000     0          
C27      C      0.460300000000     0.139800000000     0.545800000000     0          
H19      H      0.486270000000     0.159470000000     0.586390000000     0          
H20      H      0.466830000000     0.121340000000     0.500250000000     0          
Cl5      Cl     0.416300000000     0.106700000000     0.639200000000     0          
Cl6      Cl     0.444100000000     0.167900000000     0.468000000000     0          
H21?     H      0.456030000000     0.113600000000     0.509250000000     0          
H22?     H      0.481900000000     0.146910000000     0.602650000000     0          
Cl7?     Cl     0.416300000000     0.130100000000     0.600200000000     0          
Cl8?     Cl     0.481000000000     0.184300000000     0.446800000000     0          
Cl9?     Cl     0.672500000000     0.374400000000     0.863600000000     0          
H23?     H      0.656920000000     0.334930000000     0.703880000000     0          
H24?     H      0.691730000000     0.329220000000     0.774980000000     0          
Cl1      Cl     0.049400000000     0.341840000000     0.460800000000     0          
Cl2      Cl     0.960160000000     0.315940000000     0.432100000000     0          
C25      C      0.012100000000     0.346400000000     0.385100000000     0          
H15      H      0.013340000000     0.337630000000     0.310610000000     0          
H16      H      0.019680000000     0.376710000000     0.383510000000     0          
Cl3      Cl     0.907060000000     0.169880000000     0.674100000000     0          
Cl4      Cl     0.907790000000     0.179190000000     0.447900000000     0          
C26      C      0.931800000000     0.205100000000     0.562100000000     0          
H17      H      0.929030000000     0.230820000000     0.570050000000     0          
H18      H      0.962560000000     0.214260000000     0.559620000000     0          
C27      C      0.860200000000     0.320500000000     0.545800000000     0          
H19      H      0.840530000000     0.326800000000     0.586390000000     0          
H20      H      0.878660000000     0.345490000000     0.500250000000     0          
Cl5      Cl     0.893300000000     0.309600000000     0.639200000000     0          
Cl6      Cl     0.832100000000     0.276200000000     0.468000000000     0          
H21?     H      0.886400000000     0.342430000000     0.509250000000     0          
H22?     H      0.853090000000     0.334990000000     0.602650000000     0          
Cl7?     Cl     0.869900000000     0.286200000000     0.600200000000     0          
Cl8?     Cl     0.815700000000     0.296700000000     0.446800000000     0          
Cl9?     Cl     0.625600000000     0.298100000000     0.863600000000     0          
H23?     H      0.665070000000     0.321990000000     0.703880000000     0          
H24?     H      0.670780000000     0.362510000000     0.774980000000     0          
Zr1      Zr     0.274570000000     0.613970000000     0.552010000000     0          
O1       O      0.290070000000     0.585230000000     0.418400000000     0          
O2       O      0.361710000000     0.615470000000     0.412500000000     0          
O3       O      0.089720000000     0.122200000000     0.069700000000     0          
O4       O      0.054670000000     0.124830000000     0.923000000000     0          
O5       O      0.333330000000     0.666670000000     0.495900000000     0          
O6       O      0.275800000000     0.615200000000     0.721900000000     0          
C1       C      0.324490000000     0.587720000000     0.385200000000     0          
C2       C      0.318930000000     0.554150000000     0.307200000000     0          
C3       C      0.279590000000     0.516240000000     0.302600000000     0          
H1       H      0.257580000000     0.511290000000     0.351900000000     0          
C4       C      0.273000000000     0.485940000000     0.225300000000     0          
H2       H      0.246500000000     0.459950000000     0.223180000000     0          
C5       C      0.304240000000     0.492870000000     0.151300000000     0          
C6       C      0.344000000000     0.529700000000     0.160100000000     0          
H3       H      0.366150000000     0.534280000000     0.111600000000     0          
C7       C      0.351600000000     0.560000000000     0.239500000000     0          
H4       H      0.379180000000     0.584430000000     0.246880000000     0          
C8       C      0.294590000000     0.461960000000     0.061900000000     0          
C9       C      0.267180000000     0.419220000000     0.077400000000     0          
H5       H      0.256220000000     0.409020000000     0.147050000000     0          
C10      C      0.254960000000     0.390040000000     0.991000000000     0          
C11      C      0.271900000000     0.404760000000     0.887300000000     0          
C12      C      0.301100000000     0.449100000000     0.873400000000     0          
H6       H      0.313390000000     0.459590000000     0.804940000000     0          
C13      C      0.311600000000     0.476680000000     0.957500000000     0          
H7       H      0.330710000000     0.506260000000     0.946240000000     0          
C14      C      0.224920000000     0.345990000000     0.005400000000     0          
H8       H      0.213710000000     0.335830000000     0.074890000000     0          
C15      C      0.211800000000     0.317840000000     0.921200000000     0          
C16      C      0.229000000000     0.333300000000     0.817700000000     0          
H9       H      0.219820000000     0.314210000000     0.758670000000     0          
C17      C      0.258400000000     0.375300000000     0.801800000000     0          
H10      H      0.269940000000     0.384840000000     0.732260000000     0          
C18      C      0.179570000000     0.272560000000     0.938000000000     0          
C19      C      0.178910000000     0.252140000000     0.033500000000     0          
H11      H      0.199760000000     0.267300000000     0.087090000000     0          
C20      C      0.147730000000     0.209440000000     0.051100000000     0          
H12      H      0.147440000000     0.195880000000     0.116550000000     0          
C21      C      0.117430000000     0.187050000000     0.973500000000     0          
C22      C      0.118000000000     0.206940000000     0.877800000000     0          
H13      H      0.097260000000     0.191470000000     0.824350000000     0          
C23      C      0.148800000000     0.249380000000     0.859500000000     0          
H14      H      0.148990000000     0.262660000000     0.793640000000     0          
C24      C      0.084650000000     0.141000000000     0.991100000000     0          
Cl1      Cl     0.341840000000     0.292440000000     0.539200000000     0          
Cl2      Cl     0.315940000000     0.355780000000     0.567900000000     0          
C25      C      0.346400000000     0.334300000000     0.614900000000     0          
H15      H      0.337630000000     0.324290000000     0.689390000000     0          
H16      H      0.376710000000     0.357030000000     0.616490000000     0          
Cl3      Cl     0.169880000000     0.262820000000     0.325900000000     0          
Cl4      Cl     0.179190000000     0.271400000000     0.552100000000     0          
C26      C      0.205100000000     0.273300000000     0.437900000000     0          
H17      H      0.230820000000     0.301790000000     0.429950000000     0          
H18      H      0.214260000000     0.251700000000     0.440380000000     0          
C27      C      0.320500000000     0.460300000000     0.454200000000     0          
H19      H      0.326800000000     0.486270000000     0.413610000000     0          
H20      H      0.345490000000     0.466830000000     0.499750000000     0          
Cl5      Cl     0.309600000000     0.416300000000     0.360800000000     0          
Cl6      Cl     0.276200000000     0.444100000000     0.532000000000     0          
H21?     H      0.342430000000     0.456030000000     0.490750000000     0          
H22?     H      0.334990000000     0.481900000000     0.397350000000     0          
Cl7?     Cl     0.286200000000     0.416300000000     0.399800000000     0          
Cl8?     Cl     0.296700000000     0.481000000000     0.553200000000     0          
Cl9?     Cl     0.298100000000     0.672500000000     0.136400000000     0          
C29?     C      0.333330000000     0.666670000000     0.223000000000     0          
H23?     H      0.321990000000     0.656920000000     0.296120000000     0          
H24?     H      0.362510000000     0.691730000000     0.225020000000     0          
Zr1A     Zr     0.386030000000     0.660600000000     0.552010000000     0          
O1A      O      0.414770000000     0.704840000000     0.418400000000     0          
O2A      O      0.384530000000     0.746240000000     0.412500000000     0          
O3A      O      0.877800000000     0.967520000000     0.069700000000     0          
O4A      O      0.875170000000     0.929840000000     0.923000000000     0          
O6A      O      0.384800000000     0.660600000000     0.721900000000     0          
C1A      C      0.412280000000     0.736770000000     0.385200000000     0          
C2A      C      0.445850000000     0.764780000000     0.307200000000     0          
C3A      C      0.483760000000     0.763350000000     0.302600000000     0          
H1A      H      0.488710000000     0.746290000000     0.351900000000     0          
C4A      C      0.514060000000     0.787060000000     0.225300000000     0          
H2A      H      0.540050000000     0.786550000000     0.223180000000     0          
C5A      C      0.507130000000     0.811370000000     0.151300000000     0          
C6A      C      0.470300000000     0.814300000000     0.160100000000     0          
H3A      H      0.465720000000     0.831870000000     0.111600000000     0          
C7A      C      0.440000000000     0.791600000000     0.239500000000     0          
H4A      H      0.415570000000     0.794750000000     0.246880000000     0          
C8A      C      0.538040000000     0.832630000000     0.061900000000     0          
C9A      C      0.580780000000     0.847960000000     0.077400000000     0          
H5A      H      0.590980000000     0.847190000000     0.147050000000     0          
C10A     C      0.609960000000     0.864920000000     0.991000000000     0          
C11A     C      0.595240000000     0.867140000000     0.887300000000     0          
C12A     C      0.550900000000     0.852000000000     0.873400000000     0          
H6A      H      0.540410000000     0.853800000000     0.804940000000     0          
C13A     C      0.523320000000     0.834920000000     0.957500000000     0          
H7A      H      0.493740000000     0.824450000000     0.946240000000     0          
C14A     C      0.654010000000     0.878930000000     0.005400000000     0          
H8A      H      0.664170000000     0.877880000000     0.074890000000     0          
C15A     C      0.682160000000     0.893960000000     0.921200000000     0          
C16A     C      0.666700000000     0.895700000000     0.817700000000     0          
H9A      H      0.685790000000     0.905610000000     0.758670000000     0          
C17A     C      0.624700000000     0.883100000000     0.801800000000     0          
H10A     H      0.615160000000     0.885100000000     0.732260000000     0          
C18A     C      0.727440000000     0.907010000000     0.938000000000     0          
C19A     C      0.747860000000     0.926770000000     0.033500000000     0          
H11A     H      0.732700000000     0.932460000000     0.087090000000     0          
C20A     C      0.790560000000     0.938290000000     0.051100000000     0          
H12A     H      0.804120000000     0.951560000000     0.116550000000     0          
C21A     C      0.812950000000     0.930380000000     0.973500000000     0          
C22A     C      0.793060000000     0.911060000000     0.877800000000     0          
H13A     H      0.808530000000     0.905790000000     0.824350000000     0          
C23A     C      0.750620000000     0.899420000000     0.859500000000     0          
H14A     H      0.737340000000     0.886330000000     0.793640000000     0          
C24A     C      0.859000000000     0.943650000000     0.991100000000     0          
Zr1B     Zr     0.339400000000     0.725430000000     0.552010000000     0          
O1B      O      0.295160000000     0.709930000000     0.418400000000     0          
O2B      O      0.253760000000     0.638290000000     0.412500000000     0          
O3B      O      0.032480000000     0.910280000000     0.069700000000     0          
O4B      O      0.070160000000     0.945330000000     0.923000000000     0          
O6B      O      0.339400000000     0.724200000000     0.721900000000     0          
C1B      C      0.263230000000     0.675510000000     0.385200000000     0          
C2B      C      0.235220000000     0.681070000000     0.307200000000     0          
C3B      C      0.236650000000     0.720410000000     0.302600000000     0          
H1B      H      0.253710000000     0.742420000000     0.351900000000     0          
C4B      C      0.212940000000     0.727000000000     0.225300000000     0          
H2B      H      0.213450000000     0.753500000000     0.223180000000     0          
C5B      C      0.188630000000     0.695760000000     0.151300000000     0          
C6B      C      0.185700000000     0.656000000000     0.160100000000     0          
H3B      H      0.168130000000     0.633850000000     0.111600000000     0          
C7B      C      0.208400000000     0.648400000000     0.239500000000     0          
H4B      H      0.205250000000     0.620820000000     0.246880000000     0          
C8B      C      0.167370000000     0.705410000000     0.061900000000     0          
C9B      C      0.152040000000     0.732820000000     0.077400000000     0          
H5B      H      0.152810000000     0.743780000000     0.147050000000     0          
C10B     C      0.135080000000     0.745040000000     0.991000000000     0          
C11B     C      0.132860000000     0.728100000000     0.887300000000     0          
C12B     C      0.148000000000     0.698900000000     0.873400000000     0          
H6B      H      0.146200000000     0.686610000000     0.804940000000     0          
C13B     C      0.165080000000     0.688400000000     0.957500000000     0          
H7B      H      0.175550000000     0.669290000000     0.946240000000     0          
C14B     C      0.121070000000     0.775080000000     0.005400000000     0          
H8B      H      0.122120000000     0.786290000000     0.074890000000     0          
C15B     C      0.106040000000     0.788200000000     0.921200000000     0          
C16B     C      0.104300000000     0.771000000000     0.817700000000     0          
H9B      H      0.094390000000     0.780180000000     0.758670000000     0          
C17B     C      0.116900000000     0.741600000000     0.801800000000     0          
H10B     H      0.114900000000     0.730060000000     0.732260000000     0          
C18B     C      0.092990000000     0.820430000000     0.938000000000     0          
C19B     C      0.073230000000     0.821090000000     0.033500000000     0          
H11B     H      0.067540000000     0.800240000000     0.087090000000     0          
C20B     C      0.061710000000     0.852270000000     0.051100000000     0          
H12B     H      0.048440000000     0.852560000000     0.116550000000     0          
C21B     C      0.069620000000     0.882570000000     0.973500000000     0          
C22B     C      0.088940000000     0.882000000000     0.877800000000     0          
H13B     H      0.094210000000     0.902740000000     0.824350000000     0          
C23B     C      0.100580000000     0.851200000000     0.859500000000     0          
H14B     H      0.113670000000     0.851010000000     0.793640000000     0          
C24B     C      0.056350000000     0.915350000000     0.991100000000     0          
Zr1L     Zr     0.392097000000     0.719363000000     0.781323000000     0          
Zr1M     Zr     0.280637000000     0.672733000000     0.781323000000     0          
Zr1N     Zr     0.327267000000     0.607903000000     0.781323000000     0          
O3O      O      0.243613000000     0.544467000000     0.596967000000     0          
O3P      O      0.455533000000     0.699147000000     0.596967000000     0          
O3Q      O      0.300853000000     0.756387000000     0.596967000000     0          
O4C      O      0.388003000000     0.791497000000     0.589667000000     0          
O4D      O      0.208503000000     0.596507000000     0.589667000000     0          
O4E      O      0.403493000000     0.611997000000     0.589667000000     0          
O6L      O      0.390867000000     0.718133000000     0.611433000000     0          
O6M      O      0.281867000000     0.672733000000     0.611433000000     0          
O6N      O      0.327267000000     0.609133000000     0.611433000000     0          
Cl1      Cl     0.707560000000     0.049400000000     0.539200000000     0          
Cl2      Cl     0.644220000000     0.960160000000     0.567900000000     0          
C25      C      0.665700000000     0.012100000000     0.614900000000     0          
H15      H      0.675710000000     0.013340000000     0.689390000000     0          
H16      H      0.642970000000     0.019680000000     0.616490000000     0          
Cl3      Cl     0.737180000000     0.907060000000     0.325900000000     0          
Cl4      Cl     0.728600000000     0.907790000000     0.552100000000     0          
C26      C      0.726700000000     0.931800000000     0.437900000000     0          
H17      H      0.698210000000     0.929030000000     0.429950000000     0          
H18      H      0.748300000000     0.962560000000     0.440380000000     0          
C27      C      0.539700000000     0.860200000000     0.454200000000     0          
H19      H      0.513730000000     0.840530000000     0.413610000000     0          
H20      H      0.533170000000     0.878660000000     0.499750000000     0          
Cl5      Cl     0.583700000000     0.893300000000     0.360800000000     0          
Cl6      Cl     0.555900000000     0.832100000000     0.532000000000     0          
H21?     H      0.543970000000     0.886400000000     0.490750000000     0          
H22?     H      0.518100000000     0.853090000000     0.397350000000     0          
Cl7?     Cl     0.583700000000     0.869900000000     0.399800000000     0          
Cl8?     Cl     0.519000000000     0.815700000000     0.553200000000     0          
Cl9?     Cl     0.327500000000     0.625600000000     0.136400000000     0          
H23?     H      0.343080000000     0.665070000000     0.296120000000     0          
H24?     H      0.308270000000     0.670780000000     0.225020000000     0          
Cl1      Cl     0.950600000000     0.658160000000     0.539200000000     0          
Cl2      Cl     0.039840000000     0.684060000000     0.567900000000     0          
C25      C      0.987900000000     0.653600000000     0.614900000000     0          
H15      H      0.986660000000     0.662370000000     0.689390000000     0          
H16      H      0.980320000000     0.623290000000     0.616490000000     0          
Cl3      Cl     0.092940000000     0.830120000000     0.325900000000     0          
Cl4      Cl     0.092210000000     0.820810000000     0.552100000000     0          
C26      C      0.068200000000     0.794900000000     0.437900000000     0          
H17      H      0.070970000000     0.769180000000     0.429950000000     0          
H18      H      0.037440000000     0.785740000000     0.440380000000     0          
C27      C      0.139800000000     0.679500000000     0.454200000000     0          
H19      H      0.159470000000     0.673200000000     0.413610000000     0          
H20      H      0.121340000000     0.654510000000     0.499750000000     0          
Cl5      Cl     0.106700000000     0.690400000000     0.360800000000     0          
Cl6      Cl     0.167900000000     0.723800000000     0.532000000000     0          
H21?     H      0.113600000000     0.657570000000     0.490750000000     0          
H22?     H      0.146910000000     0.665010000000     0.397350000000     0          
Cl7?     Cl     0.130100000000     0.713800000000     0.399800000000     0          
Cl8?     Cl     0.184300000000     0.703300000000     0.553200000000     0          
Cl9?     Cl     0.374400000000     0.701900000000     0.136400000000     0          
H23?     H      0.334930000000     0.678010000000     0.296120000000     0          
H24?     H      0.329220000000     0.637490000000     0.225020000000     0          
O1       O      0.376596666667     0.748103333333     0.914933333333     0          
O2       O      0.304956666667     0.717863333333     0.920833333333     0          
O3       O      0.576946666667     0.211133333333     0.263633333333     0          
O5       O      0.333336666667     0.666663333333     0.837433333333     0          
C1       C      0.342176666667     0.745613333333     0.948133333333     0          
C2       C      0.347736666667     0.779183333333     0.026133333333     0          
C3       C      0.387076666667     0.817093333333     0.030733333333     0          
H1       H      0.409086666667     0.822043333333     0.981433333333     0          
C4       C      0.393666666667     0.847393333333     0.108033333333     0          
H2       H      0.420166666667     0.873383333333     0.110153333333     0          
C5       C      0.362426666667     0.840463333333     0.182033333333     0          
C6       C      0.322666666667     0.803633333333     0.173233333333     0          
H3       H      0.300516666667     0.799053333333     0.221733333333     0          
C7       C      0.315066666667     0.773333333333     0.093833333333     0          
H4       H      0.287486666667     0.748903333333     0.086453333333     0          
C8       C      0.372076666667     0.871373333333     0.271433333333     0          
C9       C      0.399486666667     0.914113333333     0.255933333333     0          
H5       H      0.410446666667     0.924313333333     0.186283333333     0          
C10      C      0.411706666667     0.943293333333     0.342333333333     0          
C11      C      0.394766666667     0.928573333333     0.446033333333     0          
C12      C      0.365566666667     0.884233333333     0.459933333333     0          
H6       H      0.353276666667     0.873743333333     0.528393333333     0          
C13      C      0.355066666667     0.856653333333     0.375833333333     0          
H7       H      0.335956666667     0.827073333333     0.387093333333     0          
C14      C      0.441746666667     0.987343333333     0.327933333333     0          
H8       H      0.452956666667     0.997503333333     0.258443333333     0          
C15      C      0.454866666667     0.015493333333     0.412133333333     0          
C16      C      0.437666666667     0.000033333333     0.515633333333     0          
H9       H      0.446846666667     0.019123333333     0.574663333333     0          
C17      C      0.408266666667     0.958033333333     0.531533333333     0          
H10      H      0.396726666667     0.948493333333     0.601073333333     0          
C18      C      0.487096666667     0.060773333333     0.395333333333     0          
C19      C      0.487756666667     0.081193333333     0.299833333333     0          
H11      H      0.466906666667     0.066033333333     0.246243333333     0          
C20      C      0.518936666667     0.123893333333     0.282233333333     0          
H12      H      0.519226666667     0.137453333333     0.216783333333     0          
C21      C      0.549236666667     0.146283333333     0.359833333333     0          
C22      C      0.548666666667     0.126393333333     0.455533333333     0          
H13      H      0.569406666667     0.141863333333     0.508983333333     0          
C23      C      0.517866666667     0.083953333333     0.473833333333     0          
H14      H      0.517676666667     0.070673333333     0.539693333333     0          
C24      C      0.582016666667     0.192333333333     0.342233333333     0          
Cl1      Cl     0.324826666667     0.040893333333     0.794133333333     0          
Cl2      Cl     0.350726666667     0.977553333333     0.765433333333     0          
C25      C      0.320266666667     0.999033333333     0.718433333333     0          
H15      H      0.329036666667     0.009043333333     0.643943333333     0          
H16      H      0.289956666667     0.976303333333     0.716843333333     0          
Cl3      Cl     0.496786666667     0.070513333333     0.007433333333     0          
Cl4      Cl     0.487476666667     0.061933333333     0.781233333333     0          
C26      C      0.461566666667     0.060033333333     0.895433333333     0          
H17      H      0.435846666667     0.031543333333     0.903383333333     0          
H18      H      0.452406666667     0.081633333333     0.892953333333     0          
C27      C      0.346166666667     0.873033333333     0.879133333333     0          
H19      H      0.339866666667     0.847063333333     0.919723333333     0          
H20      H      0.321176666667     0.866503333333     0.833583333333     0          
Cl5      Cl     0.357066666667     0.917033333333     0.972533333333     0          
Cl6      Cl     0.390466666667     0.889233333333     0.801333333333     0          
H21?     H      0.324236666667     0.877303333333     0.842583333333     0          
H22?     H      0.331676666667     0.851433333333     0.935983333333     0          
Cl7?     Cl     0.380466666667     0.917033333333     0.933533333333     0          
Cl8?     Cl     0.369966666667     0.852333333333     0.780133333333     0          
Cl9?     Cl     0.368566666667     0.660833333333     0.196933333333     0          
C29?     C      0.333336666667     0.666663333333     0.110333333333     0          
H23?     H      0.344676666667     0.676413333333     0.037213333333     0          
H24?     H      0.304156666667     0.641603333333     0.108313333333     0          
O1A      O      0.251896666667     0.628493333333     0.914933333333     0          
O2A      O      0.282136666667     0.587093333333     0.920833333333     0          
O3A      O      0.788866666667     0.365813333333     0.263633333333     0          
C1A      C      0.254386666667     0.596563333333     0.948133333333     0          
C2A      C      0.220816666667     0.568553333333     0.026133333333     0          
C3A      C      0.182906666667     0.569983333333     0.030733333333     0          
H1A      H      0.177956666667     0.587043333333     0.981433333333     0          
C4A      C      0.152606666667     0.546273333333     0.108033333333     0          
H2A      H      0.126616666667     0.546783333333     0.110153333333     0          
C5A      C      0.159536666667     0.521963333333     0.182033333333     0          
C6A      C      0.196366666667     0.519033333333     0.173233333333     0          
H3A      H      0.200946666667     0.501463333333     0.221733333333     0          
C7A      C      0.226666666667     0.541733333333     0.093833333333     0          
H4A      H      0.251096666667     0.538583333333     0.086453333333     0          
C8A      C      0.128626666667     0.500703333333     0.271433333333     0          
C9A      C      0.085886666667     0.485373333333     0.255933333333     0          
H5A      H      0.075686666667     0.486143333333     0.186283333333     0          
C10A     C      0.056706666667     0.468413333333     0.342333333333     0          
C11A     C      0.071426666667     0.466193333333     0.446033333333     0          
C12A     C      0.115766666667     0.481333333333     0.459933333333     0          
H6A      H      0.126256666667     0.479533333333     0.528393333333     0          
C13A     C      0.143346666667     0.498413333333     0.375833333333     0          
H7A      H      0.172926666667     0.508883333333     0.387093333333     0          
C14A     C      0.012656666667     0.454403333333     0.327933333333     0          
H8A      H      0.002496666667     0.455453333333     0.258443333333     0          
C15A     C      0.984506666667     0.439373333333     0.412133333333     0          
C16A     C      0.999966666667     0.437633333333     0.515633333333     0          
H9A      H      0.980876666667     0.427723333333     0.574663333333     0          
C17A     C      0.041966666667     0.450233333333     0.531533333333     0          
H10A     H      0.051506666667     0.448233333333     0.601073333333     0          
C18A     C      0.939226666667     0.426323333333     0.395333333333     0          
C19A     C      0.918806666667     0.406563333333     0.299833333333     0          
H11A     H      0.933966666667     0.400873333333     0.246243333333     0          
C20A     C      0.876106666667     0.395043333333     0.282233333333     0          
H12A     H      0.862546666667     0.381773333333     0.216783333333     0          
C21A     C      0.853716666667     0.402953333333     0.359833333333     0          
C22A     C      0.873606666667     0.422273333333     0.455533333333     0          
H13A     H      0.858136666667     0.427543333333     0.508983333333     0          
C23A     C      0.916046666667     0.433913333333     0.473833333333     0          
H14A     H      0.929326666667     0.447003333333     0.539693333333     0          
C24A     C      0.807666666667     0.389683333333     0.342233333333     0          
O1B      O      0.371506666667     0.623403333333     0.914933333333     0          
O2B      O      0.412906666667     0.695043333333     0.920833333333     0          
O3B      O      0.634186666667     0.423053333333     0.263633333333     0          
C1B      C      0.403436666667     0.657823333333     0.948133333333     0          
C2B      C      0.431446666667     0.652263333333     0.026133333333     0          
C3B      C      0.430016666667     0.612923333333     0.030733333333     0          
H1B      H      0.412956666667     0.590913333333     0.981433333333     0          
C4B      C      0.453726666667     0.606333333333     0.108033333333     0          
H2B      H      0.453216666667     0.579833333333     0.110153333333     0          
C5B      C      0.478036666667     0.637573333333     0.182033333333     0          
C6B      C      0.480966666667     0.677333333333     0.173233333333     0          
H3B      H      0.498536666667     0.699483333333     0.221733333333     0          
C7B      C      0.458266666667     0.684933333333     0.093833333333     0          
H4B      H      0.461416666667     0.712513333333     0.086453333333     0          
C8B      C      0.499296666667     0.627923333333     0.271433333333     0          
C9B      C      0.514626666667     0.600513333333     0.255933333333     0          
H5B      H      0.513856666667     0.589553333333     0.186283333333     0          
C10B     C      0.531586666667     0.588293333333     0.342333333333     0          
C11B     C      0.533806666667     0.605233333333     0.446033333333     0          
C12B     C      0.518666666667     0.634433333333     0.459933333333     0          
H6B      H      0.520466666667     0.646723333333     0.528393333333     0          
C13B     C      0.501586666667     0.644933333333     0.375833333333     0          
H7B      H      0.491116666667     0.664043333333     0.387093333333     0          
C14B     C      0.545596666667     0.558253333333     0.327933333333     0          
H8B      H      0.544546666667     0.547043333333     0.258443333333     0          
C15B     C      0.560626666667     0.545133333333     0.412133333333     0          
C16B     C      0.562366666667     0.562333333333     0.515633333333     0          
H9B      H      0.572276666667     0.553153333333     0.574663333333     0          
C17B     C      0.549766666667     0.591733333333     0.531533333333     0          
H10B     H      0.551766666667     0.603273333333     0.601073333333     0          
C18B     C      0.573676666667     0.512903333333     0.395333333333     0          
C19B     C      0.593436666667     0.512243333333     0.299833333333     0          
H11B     H      0.599126666667     0.533093333333     0.246243333333     0          
C20B     C      0.604956666667     0.481063333333     0.282233333333     0          
H12B     H      0.618226666667     0.480773333333     0.216783333333     0          
C21B     C      0.597046666667     0.450763333333     0.359833333333     0          
C22B     C      0.577726666667     0.451333333333     0.455533333333     0          
H13B     H      0.572456666667     0.430593333333     0.508983333333     0          
C23B     C      0.566086666667     0.482133333333     0.473833333333     0          
H14B     H      0.552996666667     0.482323333333     0.539693333333     0          
C24B     C      0.610316666667     0.417983333333     0.342233333333     0          
O3O      O      0.423053666667     0.788866333333     0.736366333333     0          
O3P      O      0.211133666667     0.634186333333     0.736366333333     0          
O3Q      O      0.365813666667     0.576946333333     0.736366333333     0          
O4C      O      0.278663666667     0.541836333333     0.743666333333     0          
O4D      O      0.458163666667     0.736826333333     0.743666333333     0          
O4E      O      0.263173666667     0.721336333333     0.743666333333     0          
Cl1      Cl     0.959106666667     0.283933333333     0.794133333333     0          
Cl2      Cl     0.022446666667     0.373173333333     0.765433333333     0          
C25      C      0.000966666667     0.321233333333     0.718433333333     0          
H15      H      0.990956666667     0.319993333333     0.643943333333     0          
H16      H      0.023696666667     0.313653333333     0.716843333333     0          
Cl3      Cl     0.929486666667     0.426273333333     0.007433333333     0          
Cl4      Cl     0.938066666667     0.425543333333     0.781233333333     0          
C26      C      0.939966666667     0.401533333333     0.895433333333     0          
H17      H      0.968456666667     0.404303333333     0.903383333333     0          
H18      H      0.918366666667     0.370773333333     0.892953333333     0          
C27      C      0.126966666667     0.473133333333     0.879133333333     0          
H19      H      0.152936666667     0.492803333333     0.919723333333     0          
H20      H      0.133496666667     0.454673333333     0.833583333333     0          
Cl5      Cl     0.082966666667     0.440033333333     0.972533333333     0          
Cl6      Cl     0.110766666667     0.501233333333     0.801333333333     0          
H21?     H      0.122696666667     0.446933333333     0.842583333333     0          
H22?     H      0.148566666667     0.480243333333     0.935983333333     0          
Cl7?     Cl     0.082966666667     0.463433333333     0.933533333333     0          
Cl8?     Cl     0.147666666667     0.517633333333     0.780133333333     0          
Cl9?     Cl     0.339166666667     0.707733333333     0.196933333333     0          
H23?     H      0.323586666667     0.668263333333     0.037213333333     0          
H24?     H      0.358396666667     0.662553333333     0.108313333333     0          
Cl1      Cl     0.716066666667     0.675173333333     0.794133333333     0          
Cl2      Cl     0.626826666667     0.649273333333     0.765433333333     0          
C25      C      0.678766666667     0.679733333333     0.718433333333     0          
H15      H      0.680006666667     0.670963333333     0.643943333333     0          
H16      H      0.686346666667     0.710043333333     0.716843333333     0          
Cl3      Cl     0.573726666667     0.503213333333     0.007433333333     0          
Cl4      Cl     0.574456666667     0.512523333333     0.781233333333     0          
C26      C      0.598466666667     0.538433333333     0.895433333333     0          
H17      H      0.595696666667     0.564153333333     0.903383333333     0          
H18      H      0.629226666667     0.547593333333     0.892953333333     0          
C27      C      0.526866666667     0.653833333333     0.879133333333     0          
H19      H      0.507196666667     0.660133333333     0.919723333333     0          
H20      H      0.545326666667     0.678823333333     0.833583333333     0          
Cl5      Cl     0.559966666667     0.642933333333     0.972533333333     0          
Cl6      Cl     0.498766666667     0.609533333333     0.801333333333     0          
H21?     H      0.553066666667     0.675763333333     0.842583333333     0          
H22?     H      0.519756666667     0.668323333333     0.935983333333     0          
Cl7?     Cl     0.536566666667     0.619533333333     0.933533333333     0          
Cl8?     Cl     0.482366666667     0.630033333333     0.780133333333     0          
Cl9?     Cl     0.292266666667     0.631433333333     0.196933333333     0          
H23?     H      0.331736666667     0.655323333333     0.037213333333     0          
H24?     H      0.337446666667     0.695843333333     0.108313333333     0          
O1       O      0.956736666667     0.918563333333     0.751733333333     0          
O2       O      0.028376666667     0.948803333333     0.745833333333     0          
O4       O      0.721336666667     0.458163333333     0.256333333333     0          
O5       O      0.999996666667     0.000003333333     0.829233333333     0          
O6       O      0.942466666667     0.948533333333     0.055233333333     0          
C1       C      0.991156666667     0.921053333333     0.718533333333     0          
C2       C      0.985596666667     0.887483333333     0.640533333333     0          
C3       C      0.946256666667     0.849573333333     0.635933333333     0          
H1       H      0.924246666667     0.844623333333     0.685233333333     0          
C4       C      0.939666666667     0.819273333333     0.558633333333     0          
H2       H      0.913166666667     0.793283333333     0.556513333333     0          
C5       C      0.970906666667     0.826203333333     0.484633333333     0          
C6       C      0.010666666667     0.863033333333     0.493433333333     0          
H3       H      0.032816666667     0.867613333333     0.444933333333     0          
C7       C      0.018266666667     0.893333333333     0.572833333333     0          
H4       H      0.045846666667     0.917763333333     0.580213333333     0          
C8       C      0.961256666667     0.795293333333     0.395233333333     0          
C9       C      0.933846666667     0.752553333333     0.410733333333     0          
H5       H      0.922886666667     0.742353333333     0.480383333333     0          
C10      C      0.921626666667     0.723373333333     0.324333333333     0          
C11      C      0.938566666667     0.738093333333     0.220633333333     0          
C12      C      0.967766666667     0.782433333333     0.206733333333     0          
H6       H      0.980056666667     0.792923333333     0.138273333333     0          
C13      C      0.978266666667     0.810013333333     0.290833333333     0          
H7       H      0.997376666667     0.839593333333     0.279573333333     0          
C14      C      0.891586666667     0.679323333333     0.338733333333     0          
H8       H      0.880376666667     0.669163333333     0.408223333333     0          
C15      C      0.878466666667     0.651173333333     0.254533333333     0          
C16      C      0.895666666667     0.666633333333     0.151033333333     0          
H9       H      0.886486666667     0.647543333333     0.092003333333     0          
C17      C      0.925066666667     0.708633333333     0.135133333333     0          
H10      H      0.936606666667     0.718173333333     0.065593333333     0          
C18      C      0.846236666667     0.605893333333     0.271333333333     0          
C19      C      0.845576666667     0.585473333333     0.366833333333     0          
H11      H      0.866426666667     0.600633333333     0.420423333333     0          
C20      C      0.814396666667     0.542773333333     0.384433333333     0          
H12      H      0.814106666667     0.529213333333     0.449883333333     0          
C21      C      0.784096666667     0.520383333333     0.306833333333     0          
C22      C      0.784666666667     0.540273333333     0.211133333333     0          
H13      H      0.763926666667     0.524803333333     0.157683333333     0          
C23      C      0.815466666667     0.582713333333     0.192833333333     0          
H14      H      0.815656666667     0.595993333333     0.126973333333     0          
C24      C      0.751316666667     0.474333333333     0.324433333333     0          
Cl1      Cl     0.008506666667     0.625773333333     0.872533333333     0          
Cl2      Cl     0.982606666667     0.689113333333     0.901233333333     0          
C25      C      0.013066666667     0.667633333333     0.948233333333     0          
H15      H      0.004296666667     0.657623333333     0.022723333333     0          
H16      H      0.043376666667     0.690363333333     0.949823333333     0          
Cl3      Cl     0.836546666667     0.596153333333     0.659233333333     0          
Cl4      Cl     0.845856666667     0.604733333333     0.885433333333     0          
C26      C      0.871766666667     0.606633333333     0.771233333333     0          
H17      H      0.897486666667     0.635123333333     0.763283333333     0          
H18      H      0.880926666667     0.585033333333     0.773713333333     0          
C27      C      0.987166666667     0.793633333333     0.787533333333     0          
H19      H      0.993466666667     0.819603333333     0.746943333333     0          
H20      H      0.012156666667     0.800163333333     0.833083333333     0          
Cl5      Cl     0.976266666667     0.749633333333     0.694133333333     0          
Cl6      Cl     0.942866666667     0.777433333333     0.865333333333     0          
H21?     H      0.009096666667     0.789363333333     0.824083333333     0          
H22?     H      0.001656666667     0.815233333333     0.730683333333     0          
Cl7?     Cl     0.952866666667     0.749633333333     0.733133333333     0          
Cl8?     Cl     0.963366666667     0.814333333333     0.886533333333     0          
Cl9?     Cl     0.964766666667     0.005833333333     0.469733333333     0          
C29?     C      0.999996666667     0.000003333333     0.556333333333     0          
H23?     H      0.988656666667     0.990253333333     0.629453333333     0          
H24?     H      0.029176666667     0.025063333333     0.558353333333     0          
O1A      O      0.081436666667     0.038173333333     0.751733333333     0          
O2A      O      0.051196666667     0.079573333333     0.745833333333     0          
O4A      O      0.541836666667     0.263173333333     0.256333333333     0          
O6A      O      0.051466666667     0.993933333333     0.055233333333     0          
C1A      C      0.078946666667     0.070103333333     0.718533333333     0          
C2A      C      0.112516666667     0.098113333333     0.640533333333     0          
C3A      C      0.150426666667     0.096683333333     0.635933333333     0          
H1A      H      0.155376666667     0.079623333333     0.685233333333     0          
C4A      C      0.180726666667     0.120393333333     0.558633333333     0          
H2A      H      0.206716666667     0.119883333333     0.556513333333     0          
C5A      C      0.173796666667     0.144703333333     0.484633333333     0          
C6A      C      0.136966666667     0.147633333333     0.493433333333     0          
H3A      H      0.132386666667     0.165203333333     0.444933333333     0          
C7A      C      0.106666666667     0.124933333333     0.572833333333     0          
H4A      H      0.082236666667     0.128083333333     0.580213333333     0          
C8A      C      0.204706666667     0.165963333333     0.395233333333     0          
C9A      C      0.247446666667     0.181293333333     0.410733333333     0          
H5A      H      0.257646666667     0.180523333333     0.480383333333     0          
C10A     C      0.276626666667     0.198253333333     0.324333333333     0          
C11A     C      0.261906666667     0.200473333333     0.220633333333     0          
C12A     C      0.217566666667     0.185333333333     0.206733333333     0          
H6A      H      0.207076666667     0.187133333333     0.138273333333     0          
C13A     C      0.189986666667     0.168253333333     0.290833333333     0          
H7A      H      0.160406666667     0.157783333333     0.279573333333     0          
C14A     C      0.320676666667     0.212263333333     0.338733333333     0          
H8A      H      0.330836666667     0.211213333333     0.408223333333     0          
C15A     C      0.348826666667     0.227293333333     0.254533333333     0          
C16A     C      0.333366666667     0.229033333333     0.151033333333     0          
H9A      H      0.352456666667     0.238943333333     0.092003333333     0          
C17A     C      0.291366666667     0.216433333333     0.135133333333     0          
H10A     H      0.281826666667     0.218433333333     0.065593333333     0          
C18A     C      0.394106666667     0.240343333333     0.271333333333     0          
C19A     C      0.414526666667     0.260103333333     0.366833333333     0          
H11A     H      0.399366666667     0.265793333333     0.420423333333     0          
C20A     C      0.457226666667     0.271623333333     0.384433333333     0          
H12A     H      0.470786666667     0.284893333333     0.449883333333     0          
C21A     C      0.479616666667     0.263713333333     0.306833333333     0          
C22A     C      0.459726666667     0.244393333333     0.211133333333     0          
H13A     H      0.475196666667     0.239123333333     0.157683333333     0          
C23A     C      0.417286666667     0.232753333333     0.192833333333     0          
H14A     H      0.404006666667     0.219663333333     0.126973333333     0          
C24A     C      0.525666666667     0.276983333333     0.324433333333     0          
O1B      O      0.961826666667     0.043263333333     0.751733333333     0          
O2B      O      0.920426666667     0.971623333333     0.745833333333     0          
O4B      O      0.736826666667     0.278663333333     0.256333333333     0          
O6B      O      0.006066666667     0.057533333333     0.055233333333     0          
C1B      C      0.929896666667     0.008843333333     0.718533333333     0          
C2B      C      0.901886666667     0.014403333333     0.640533333333     0          
C3B      C      0.903316666667     0.053743333333     0.635933333333     0          
H1B      H      0.920376666667     0.075753333333     0.685233333333     0          
C4B      C      0.879606666667     0.060333333333     0.558633333333     0          
H2B      H      0.880116666667     0.086833333333     0.556513333333     0          
C5B      C      0.855296666667     0.029093333333     0.484633333333     0          
C6B      C      0.852366666667     0.989333333333     0.493433333333     0          
H3B      H      0.834796666667     0.967183333333     0.444933333333     0          
C7B      C      0.875066666667     0.981733333333     0.572833333333     0          
H4B      H      0.871916666667     0.954153333333     0.580213333333     0          
C8B      C      0.834036666667     0.038743333333     0.395233333333     0          
C9B      C      0.818706666667     0.066153333333     0.410733333333     0          
H5B      H      0.819476666667     0.077113333333     0.480383333333     0          
C10B     C      0.801746666667     0.078373333333     0.324333333333     0          
C11B     C      0.799526666667     0.061433333333     0.220633333333     0          
C12B     C      0.814666666667     0.032233333333     0.206733333333     0          
H6B      H      0.812866666667     0.019943333333     0.138273333333     0          
C13B     C      0.831746666667     0.021733333333     0.290833333333     0          
H7B      H      0.842216666667     0.002623333333     0.279573333333     0          
C14B     C      0.787736666667     0.108413333333     0.338733333333     0          
H8B      H      0.788786666667     0.119623333333     0.408223333333     0          
C15B     C      0.772706666667     0.121533333333     0.254533333333     0          
C16B     C      0.770966666667     0.104333333333     0.151033333333     0          
H9B      H      0.761056666667     0.113513333333     0.092003333333     0          
C17B     C      0.783566666667     0.074933333333     0.135133333333     0          
H10B     H      0.781566666667     0.063393333333     0.065593333333     0          
C18B     C      0.759656666667     0.153763333333     0.271333333333     0          
C19B     C      0.739896666667     0.154423333333     0.366833333333     0          
H11B     H      0.734206666667     0.133573333333     0.420423333333     0          
C20B     C      0.728376666667     0.185603333333     0.384433333333     0          
H12B     H      0.715106666667     0.185893333333     0.449883333333     0          
C21B     C      0.736286666667     0.215903333333     0.306833333333     0          
C22B     C      0.755606666667     0.215333333333     0.211133333333     0          
H13B     H      0.760876666667     0.236073333333     0.157683333333     0          
C23B     C      0.767246666667     0.184533333333     0.192833333333     0          
H14B     H      0.780336666667     0.184343333333     0.126973333333     0          
C24B     C      0.723016666667     0.248683333333     0.324433333333     0          
O6L      O      0.057533666667     0.051466333333     0.944766333333     0          
O6M      O      0.948533666667     0.006066333333     0.944766333333     0          
O6N      O      0.993933666667     0.942466333333     0.944766333333     0          
Cl1      Cl     0.374226666667     0.382733333333     0.872533333333     0          
Cl2      Cl     0.310886666667     0.293493333333     0.901233333333     0          
C25      C      0.332366666667     0.345433333333     0.948233333333     0          
H15      H      0.342376666667     0.346673333333     0.022723333333     0          
H16      H      0.309636666667     0.353013333333     0.949823333333     0          
Cl3      Cl     0.403846666667     0.240393333333     0.659233333333     0          
Cl4      Cl     0.395266666667     0.241123333333     0.885433333333     0          
C26      C      0.393366666667     0.265133333333     0.771233333333     0          
H17      H      0.364876666667     0.262363333333     0.763283333333     0          
H18      H      0.414966666667     0.295893333333     0.773713333333     0          
C27      C      0.206366666667     0.193533333333     0.787533333333     0          
H19      H      0.180396666667     0.173863333333     0.746943333333     0          
H20      H      0.199836666667     0.211993333333     0.833083333333     0          
Cl5      Cl     0.250366666667     0.226633333333     0.694133333333     0          
Cl6      Cl     0.222566666667     0.165433333333     0.865333333333     0          
H21?     H      0.210636666667     0.219733333333     0.824083333333     0          
H22?     H      0.184766666667     0.186423333333     0.730683333333     0          
Cl7?     Cl     0.250366666667     0.203233333333     0.733133333333     0          
Cl8?     Cl     0.185666666667     0.149033333333     0.886533333333     0          
Cl9?     Cl     0.994166666667     0.958933333333     0.469733333333     0          
H23?     H      0.009746666667     0.998403333333     0.629453333333     0          
H24?     H      0.974936666667     0.004113333333     0.558353333333     0          
Cl1      Cl     0.617266666667     0.991493333333     0.872533333333     0          
Cl2      Cl     0.706506666667     0.017393333333     0.901233333333     0          
C25      C      0.654566666667     0.986933333333     0.948233333333     0          
H15      H      0.653326666667     0.995703333333     0.022723333333     0          
H16      H      0.646986666667     0.956623333333     0.949823333333     0          
Cl3      Cl     0.759606666667     0.163453333333     0.659233333333     0          
Cl4      Cl     0.758876666667     0.154143333333     0.885433333333     0          
C26      C      0.734866666667     0.128233333333     0.771233333333     0          
H17      H      0.737636666667     0.102513333333     0.763283333333     0          
H18      H      0.704106666667     0.119073333333     0.773713333333     0          
C27      C      0.806466666667     0.012833333333     0.787533333333     0          
H19      H      0.826136666667     0.006533333333     0.746943333333     0          
H20      H      0.788006666667     0.987843333333     0.833083333333     0          
Cl5      Cl     0.773366666667     0.023733333333     0.694133333333     0          
Cl6      Cl     0.834566666667     0.057133333333     0.865333333333     0          
H21?     H      0.780266666667     0.990903333333     0.824083333333     0          
H22?     H      0.813576666667     0.998343333333     0.730683333333     0          
Cl7?     Cl     0.796766666667     0.047133333333     0.733133333333     0          
Cl8?     Cl     0.850966666667     0.036633333333     0.886533333333     0          
Cl9?     Cl     0.041066666667     0.035233333333     0.469733333333     0          
H23?     H      0.001596666667     0.011343333333     0.629453333333     0          
H24?     H      0.995886666667     0.970823333333     0.558353333333     0          
O1       O      0.043263333333     0.081436666667     0.248266666667     0          
O2       O      0.971623333333     0.051196666667     0.254166666667     0          
O5       O      0.000003333333     0.999996666667     0.170766666667     0          
C1       C      0.008843333333     0.078946666667     0.281466666667     0          
C2       C      0.014403333333     0.112516666667     0.359466666667     0          
C3       C      0.053743333333     0.150426666667     0.364066666667     0          
H1       H      0.075753333333     0.155376666667     0.314766666667     0          
C4       C      0.060333333333     0.180726666667     0.441366666667     0          
H2       H      0.086833333333     0.206716666667     0.443486666667     0          
C5       C      0.029093333333     0.173796666667     0.515366666667     0          
C6       C      0.989333333333     0.136966666667     0.506566666667     0          
H3       H      0.967183333333     0.132386666667     0.555066666667     0          
C7       C      0.981733333333     0.106666666667     0.427166666667     0          
H4       H      0.954153333333     0.082236666667     0.419786666667     0          
C8       C      0.038743333333     0.204706666667     0.604766666667     0          
C9       C      0.066153333333     0.247446666667     0.589266666667     0          
H5       H      0.077113333333     0.257646666667     0.519616666667     0          
C10      C      0.078373333333     0.276626666667     0.675666666667     0          
C11      C      0.061433333333     0.261906666667     0.779366666667     0          
C12      C      0.032233333333     0.217566666667     0.793266666667     0          
H6       H      0.019943333333     0.207076666667     0.861726666667     0          
C13      C      0.021733333333     0.189986666667     0.709166666667     0          
H7       H      0.002623333333     0.160406666667     0.720426666667     0          
C14      C      0.108413333333     0.320676666667     0.661266666667     0          
H8       H      0.119623333333     0.330836666667     0.591776666667     0          
C15      C      0.121533333333     0.348826666667     0.745466666667     0          
C16      C      0.104333333333     0.333366666667     0.848966666667     0          
H9       H      0.113513333333     0.352456666667     0.907996666667     0          
C17      C      0.074933333333     0.291366666667     0.864866666667     0          
H10      H      0.063393333333     0.281826666667     0.934406666667     0          
C18      C      0.153763333333     0.394106666667     0.728666666667     0          
C19      C      0.154423333333     0.414526666667     0.633166666667     0          
H11      H      0.133573333333     0.399366666667     0.579576666667     0          
C20      C      0.185603333333     0.457226666667     0.615566666667     0          
H12      H      0.185893333333     0.470786666667     0.550116666667     0          
C21      C      0.215903333333     0.479616666667     0.693166666667     0          
C22      C      0.215333333333     0.459726666667     0.788866666667     0          
H13      H      0.236073333333     0.475196666667     0.842316666667     0          
C23      C      0.184533333333     0.417286666667     0.807166666667     0          
H14      H      0.184343333333     0.404006666667     0.873026666667     0          
C24      C      0.248683333333     0.525666666667     0.675566666667     0          
Cl1      Cl     0.991493333333     0.374226666667     0.127466666667     0          
Cl2      Cl     0.017393333333     0.310886666667     0.098766666667     0          
C25      C      0.986933333333     0.332366666667     0.051766666667     0          
H15      H      0.995703333333     0.342376666667     0.977276666667     0          
H16      H      0.956623333333     0.309636666667     0.050176666667     0          
Cl3      Cl     0.163453333333     0.403846666667     0.340766666667     0          
Cl4      Cl     0.154143333333     0.395266666667     0.114566666667     0          
C26      C      0.128233333333     0.393366666667     0.228766666667     0          
H17      H      0.102513333333     0.364876666667     0.236716666667     0          
H18      H      0.119073333333     0.414966666667     0.226286666667     0          
C27      C      0.012833333333     0.206366666667     0.212466666667     0          
H19      H      0.006533333333     0.180396666667     0.253056666667     0          
H20      H      0.987843333333     0.199836666667     0.166916666667     0          
Cl5      Cl     0.023733333333     0.250366666667     0.305866666667     0          
Cl6      Cl     0.057133333333     0.222566666667     0.134666666667     0          
H21?     H      0.990903333333     0.210636666667     0.175916666667     0          
H22?     H      0.998343333333     0.184766666667     0.269316666667     0          
Cl7?     Cl     0.047133333333     0.250366666667     0.266866666667     0          
Cl8?     Cl     0.036633333333     0.185666666667     0.113466666667     0          
Cl9?     Cl     0.035233333333     0.994166666667     0.530266666667     0          
C29?     C      0.000003333333     0.999996666667     0.443666666667     0          
H23?     H      0.011343333333     0.009746666667     0.370546666667     0          
H24?     H      0.970823333333     0.974936666667     0.441646666667     0          
O1A      O      0.918563333333     0.961826666667     0.248266666667     0          
O2A      O      0.948803333333     0.920426666667     0.254166666667     0          
C1A      C      0.921053333333     0.929896666667     0.281466666667     0          
C2A      C      0.887483333333     0.901886666667     0.359466666667     0          
C3A      C      0.849573333333     0.903316666667     0.364066666667     0          
H1A      H      0.844623333333     0.920376666667     0.314766666667     0          
C4A      C      0.819273333333     0.879606666667     0.441366666667     0          
H2A      H      0.793283333333     0.880116666667     0.443486666667     0          
C5A      C      0.826203333333     0.855296666667     0.515366666667     0          
C6A      C      0.863033333333     0.852366666667     0.506566666667     0          
H3A      H      0.867613333333     0.834796666667     0.555066666667     0          
C7A      C      0.893333333333     0.875066666667     0.427166666667     0          
H4A      H      0.917763333333     0.871916666667     0.419786666667     0          
C8A      C      0.795293333333     0.834036666667     0.604766666667     0          
C9A      C      0.752553333333     0.818706666667     0.589266666667     0          
H5A      H      0.742353333333     0.819476666667     0.519616666667     0          
C10A     C      0.723373333333     0.801746666667     0.675666666667     0          
C11A     C      0.738093333333     0.799526666667     0.779366666667     0          
C12A     C      0.782433333333     0.814666666667     0.793266666667     0          
H6A      H      0.792923333333     0.812866666667     0.861726666667     0          
C13A     C      0.810013333333     0.831746666667     0.709166666667     0          
H7A      H      0.839593333333     0.842216666667     0.720426666667     0          
C14A     C      0.679323333333     0.787736666667     0.661266666667     0          
H8A      H      0.669163333333     0.788786666667     0.591776666667     0          
C15A     C      0.651173333333     0.772706666667     0.745466666667     0          
C16A     C      0.666633333333     0.770966666667     0.848966666667     0          
H9A      H      0.647543333333     0.761056666667     0.907996666667     0          
C17A     C      0.708633333333     0.783566666667     0.864866666667     0          
H10A     H      0.718173333333     0.781566666667     0.934406666667     0          
C18A     C      0.605893333333     0.759656666667     0.728666666667     0          
C19A     C      0.585473333333     0.739896666667     0.633166666667     0          
H11A     H      0.600633333333     0.734206666667     0.579576666667     0          
C20A     C      0.542773333333     0.728376666667     0.615566666667     0          
H12A     H      0.529213333333     0.715106666667     0.550116666667     0          
C21A     C      0.520383333333     0.736286666667     0.693166666667     0          
C22A     C      0.540273333333     0.755606666667     0.788866666667     0          
H13A     H      0.524803333333     0.760876666667     0.842316666667     0          
C23A     C      0.582713333333     0.767246666667     0.807166666667     0          
H14A     H      0.595993333333     0.780336666667     0.873026666667     0          
C24A     C      0.474333333333     0.723016666667     0.675566666667     0          
O1B      O      0.038173333333     0.956736666667     0.248266666667     0          
O2B      O      0.079573333333     0.028376666667     0.254166666667     0          
C1B      C      0.070103333333     0.991156666667     0.281466666667     0          
C2B      C      0.098113333333     0.985596666667     0.359466666667     0          
C3B      C      0.096683333333     0.946256666667     0.364066666667     0          
H1B      H      0.079623333333     0.924246666667     0.314766666667     0          
C4B      C      0.120393333333     0.939666666667     0.441366666667     0          
H2B      H      0.119883333333     0.913166666667     0.443486666667     0          
C5B      C      0.144703333333     0.970906666667     0.515366666667     0          
C6B      C      0.147633333333     0.010666666667     0.506566666667     0          
H3B      H      0.165203333333     0.032816666667     0.555066666667     0          
C7B      C      0.124933333333     0.018266666667     0.427166666667     0          
H4B      H      0.128083333333     0.045846666667     0.419786666667     0          
C8B      C      0.165963333333     0.961256666667     0.604766666667     0          
C9B      C      0.181293333333     0.933846666667     0.589266666667     0          
H5B      H      0.180523333333     0.922886666667     0.519616666667     0          
C10B     C      0.198253333333     0.921626666667     0.675666666667     0          
C11B     C      0.200473333333     0.938566666667     0.779366666667     0          
C12B     C      0.185333333333     0.967766666667     0.793266666667     0          
H6B      H      0.187133333333     0.980056666667     0.861726666667     0          
C13B     C      0.168253333333     0.978266666667     0.709166666667     0          
H7B      H      0.157783333333     0.997376666667     0.720426666667     0          
C14B     C      0.212263333333     0.891586666667     0.661266666667     0          
H8B      H      0.211213333333     0.880376666667     0.591776666667     0          
C15B     C      0.227293333333     0.878466666667     0.745466666667     0          
C16B     C      0.229033333333     0.895666666667     0.848966666667     0          
H9B      H      0.238943333333     0.886486666667     0.907996666667     0          
C17B     C      0.216433333333     0.925066666667     0.864866666667     0          
H10B     H      0.218433333333     0.936606666667     0.934406666667     0          
C18B     C      0.240343333333     0.846236666667     0.728666666667     0          
C19B     C      0.260103333333     0.845576666667     0.633166666667     0          
H11B     H      0.265793333333     0.866426666667     0.579576666667     0          
C20B     C      0.271623333333     0.814396666667     0.615566666667     0          
H12B     H      0.284893333333     0.814106666667     0.550116666667     0          
C21B     C      0.263713333333     0.784096666667     0.693166666667     0          
C22B     C      0.244393333333     0.784666666667     0.788866666667     0          
H13B     H      0.239123333333     0.763926666667     0.842316666667     0          
C23B     C      0.232753333333     0.815466666667     0.807166666667     0          
H14B     H      0.219663333333     0.815656666667     0.873026666667     0          
C24B     C      0.276983333333     0.751316666667     0.675566666667     0          
Cl1      Cl     0.625773333333     0.617266666667     0.127466666667     0          
Cl2      Cl     0.689113333333     0.706506666667     0.098766666667     0          
C25      C      0.667633333333     0.654566666667     0.051766666667     0          
H15      H      0.657623333333     0.653326666667     0.977276666667     0          
H16      H      0.690363333333     0.646986666667     0.050176666667     0          
Cl3      Cl     0.596153333333     0.759606666667     0.340766666667     0          
Cl4      Cl     0.604733333333     0.758876666667     0.114566666667     0          
C26      C      0.606633333333     0.734866666667     0.228766666667     0          
H17      H      0.635123333333     0.737636666667     0.236716666667     0          
H18      H      0.585033333333     0.704106666667     0.226286666667     0          
C27      C      0.793633333333     0.806466666667     0.212466666667     0          
H19      H      0.819603333333     0.826136666667     0.253056666667     0          
H20      H      0.800163333333     0.788006666667     0.166916666667     0          
Cl5      Cl     0.749633333333     0.773366666667     0.305866666667     0          
Cl6      Cl     0.777433333333     0.834566666667     0.134666666667     0          
H21?     H      0.789363333333     0.780266666667     0.175916666667     0          
H22?     H      0.815233333333     0.813576666667     0.269316666667     0          
Cl7?     Cl     0.749633333333     0.796766666667     0.266866666667     0          
Cl8?     Cl     0.814333333333     0.850966666667     0.113466666667     0          
Cl9?     Cl     0.005833333333     0.041066666667     0.530266666667     0          
H23?     H      0.990253333333     0.001596666667     0.370546666667     0          
H24?     H      0.025063333333     0.995886666667     0.441646666667     0          
Cl1      Cl     0.382733333333     0.008506666667     0.127466666667     0          
Cl2      Cl     0.293493333333     0.982606666667     0.098766666667     0          
C25      C      0.345433333333     0.013066666667     0.051766666667     0          
H15      H      0.346673333333     0.004296666667     0.977276666667     0          
H16      H      0.353013333333     0.043376666667     0.050176666667     0          
Cl3      Cl     0.240393333333     0.836546666667     0.340766666667     0          
Cl4      Cl     0.241123333333     0.845856666667     0.114566666667     0          
C26      C      0.265133333333     0.871766666667     0.228766666667     0          
H17      H      0.262363333333     0.897486666667     0.236716666667     0          
H18      H      0.295893333333     0.880926666667     0.226286666667     0          
C27      C      0.193533333333     0.987166666667     0.212466666667     0          
H19      H      0.173863333333     0.993466666667     0.253056666667     0          
H20      H      0.211993333333     0.012156666667     0.166916666667     0          
Cl5      Cl     0.226633333333     0.976266666667     0.305866666667     0          
Cl6      Cl     0.165433333333     0.942866666667     0.134666666667     0          
H21?     H      0.219733333333     0.009096666667     0.175916666667     0          
H22?     H      0.186423333333     0.001656666667     0.269316666667     0          
Cl7?     Cl     0.203233333333     0.952866666667     0.266866666667     0          
Cl8?     Cl     0.149033333333     0.963366666667     0.113466666667     0          
Cl9?     Cl     0.958933333333     0.964766666667     0.530266666667     0          
H23?     H      0.998403333333     0.988656666667     0.370546666667     0          
H24?     H      0.004113333333     0.029176666667     0.441646666667     0          
O1       O      0.623403333333     0.251896666667     0.085066666667     0          
O2       O      0.695043333333     0.282136666667     0.079166666667     0          
O5       O      0.666663333333     0.333336666667     0.162566666667     0          
C1       C      0.657823333333     0.254386666667     0.051866666667     0          
C2       C      0.652263333333     0.220816666667     0.973866666667     0          
C3       C      0.612923333333     0.182906666667     0.969266666667     0          
H1       H      0.590913333333     0.177956666667     0.018566666667     0          
C4       C      0.606333333333     0.152606666667     0.891966666667     0          
H2       H      0.579833333333     0.126616666667     0.889846666667     0          
C5       C      0.637573333333     0.159536666667     0.817966666667     0          
C6       C      0.677333333333     0.196366666667     0.826766666667     0          
H3       H      0.699483333333     0.200946666667     0.778266666667     0          
C7       C      0.684933333333     0.226666666667     0.906166666667     0          
H4       H      0.712513333333     0.251096666667     0.913546666667     0          
C8       C      0.627923333333     0.128626666667     0.728566666667     0          
C9       C      0.600513333333     0.085886666667     0.744066666667     0          
H5       H      0.589553333333     0.075686666667     0.813716666667     0          
C10      C      0.588293333333     0.056706666667     0.657666666667     0          
C11      C      0.605233333333     0.071426666667     0.553966666667     0          
C12      C      0.634433333333     0.115766666667     0.540066666667     0          
H6       H      0.646723333333     0.126256666667     0.471606666667     0          
C13      C      0.644933333333     0.143346666667     0.624166666667     0          
H7       H      0.664043333333     0.172926666667     0.612906666667     0          
C14      C      0.558253333333     0.012656666667     0.672066666667     0          
H8       H      0.547043333333     0.002496666667     0.741556666667     0          
C15      C      0.545133333333     0.984506666667     0.587866666667     0          
C16      C      0.562333333333     0.999966666667     0.484366666667     0          
H9       H      0.553153333333     0.980876666667     0.425336666667     0          
C17      C      0.591733333333     0.041966666667     0.468466666667     0          
H10      H      0.603273333333     0.051506666667     0.398926666667     0          
C18      C      0.512903333333     0.939226666667     0.604666666667     0          
C19      C      0.512243333333     0.918806666667     0.700166666667     0          
H11      H      0.533093333333     0.933966666667     0.753756666667     0          
C20      C      0.481063333333     0.876106666667     0.717766666667     0          
H12      H      0.480773333333     0.862546666667     0.783216666667     0          
C21      C      0.450763333333     0.853716666667     0.640166666667     0          
C22      C      0.451333333333     0.873606666667     0.544466666667     0          
H13      H      0.430593333333     0.858136666667     0.491016666667     0          
C23      C      0.482133333333     0.916046666667     0.526166666667     0          
H14      H      0.482323333333     0.929326666667     0.460306666667     0          
C24      C      0.417983333333     0.807666666667     0.657766666667     0          
Cl1      Cl     0.675173333333     0.959106666667     0.205866666667     0          
Cl2      Cl     0.649273333333     0.022446666667     0.234566666667     0          
C25      C      0.679733333333     0.000966666667     0.281566666667     0          
H15      H      0.670963333333     0.990956666667     0.356056666667     0          
H16      H      0.710043333333     0.023696666667     0.283156666667     0          
Cl3      Cl     0.503213333333     0.929486666667     0.992566666667     0          
Cl4      Cl     0.512523333333     0.938066666667     0.218766666667     0          
C26      C      0.538433333333     0.939966666667     0.104566666667     0          
H17      H      0.564153333333     0.968456666667     0.096616666667     0          
H18      H      0.547593333333     0.918366666667     0.107046666667     0          
C27      C      0.653833333333     0.126966666667     0.120866666667     0          
H19      H      0.660133333333     0.152936666667     0.080276666667     0          
H20      H      0.678823333333     0.133496666667     0.166416666667     0          
Cl5      Cl     0.642933333333     0.082966666667     0.027466666667     0          
Cl6      Cl     0.609533333333     0.110766666667     0.198666666667     0          
H21?     H      0.675763333333     0.122696666667     0.157416666667     0          
H22?     H      0.668323333333     0.148566666667     0.064016666667     0          
Cl7?     Cl     0.619533333333     0.082966666667     0.066466666667     0          
Cl8?     Cl     0.630033333333     0.147666666667     0.219866666667     0          
Cl9?     Cl     0.631433333333     0.339166666667     0.803066666667     0          
C29?     C      0.666663333333     0.333336666667     0.889666666667     0          
H23?     H      0.655323333333     0.323586666667     0.962786666667     0          
H24?     H      0.695843333333     0.358396666667     0.891686666667     0          
O1A      O      0.748103333333     0.371506666667     0.085066666667     0          
O2A      O      0.717863333333     0.412906666667     0.079166666667     0          
C1A      C      0.745613333333     0.403436666667     0.051866666667     0          
C2A      C      0.779183333333     0.431446666667     0.973866666667     0          
C3A      C      0.817093333333     0.430016666667     0.969266666667     0          
H1A      H      0.822043333333     0.412956666667     0.018566666667     0          
C4A      C      0.847393333333     0.453726666667     0.891966666667     0          
H2A      H      0.873383333333     0.453216666667     0.889846666667     0          
C5A      C      0.840463333333     0.478036666667     0.817966666667     0          
C6A      C      0.803633333333     0.480966666667     0.826766666667     0          
H3A      H      0.799053333333     0.498536666667     0.778266666667     0          
C7A      C      0.773333333333     0.458266666667     0.906166666667     0          
H4A      H      0.748903333333     0.461416666667     0.913546666667     0          
C8A      C      0.871373333333     0.499296666667     0.728566666667     0          
C9A      C      0.914113333333     0.514626666667     0.744066666667     0          
H5A      H      0.924313333333     0.513856666667     0.813716666667     0          
C10A     C      0.943293333333     0.531586666667     0.657666666667     0          
C11A     C      0.928573333333     0.533806666667     0.553966666667     0          
C12A     C      0.884233333333     0.518666666667     0.540066666667     0          
H6A      H      0.873743333333     0.520466666667     0.471606666667     0          
C13A     C      0.856653333333     0.501586666667     0.624166666667     0          
H7A      H      0.827073333333     0.491116666667     0.612906666667     0          
C14A     C      0.987343333333     0.545596666667     0.672066666667     0          
H8A      H      0.997503333333     0.544546666667     0.741556666667     0          
C15A     C      0.015493333333     0.560626666667     0.587866666667     0          
C16A     C      0.000033333333     0.562366666667     0.484366666667     0          
H9A      H      0.019123333333     0.572276666667     0.425336666667     0          
C17A     C      0.958033333333     0.549766666667     0.468466666667     0          
H10A     H      0.948493333333     0.551766666667     0.398926666667     0          
C18A     C      0.060773333333     0.573676666667     0.604666666667     0          
C19A     C      0.081193333333     0.593436666667     0.700166666667     0          
H11A     H      0.066033333333     0.599126666667     0.753756666667     0          
C20A     C      0.123893333333     0.604956666667     0.717766666667     0          
H12A     H      0.137453333333     0.618226666667     0.783216666667     0          
C21A     C      0.146283333333     0.597046666667     0.640166666667     0          
C22A     C      0.126393333333     0.577726666667     0.544466666667     0          
H13A     H      0.141863333333     0.572456666667     0.491016666667     0          
C23A     C      0.083953333333     0.566086666667     0.526166666667     0          
H14A     H      0.070673333333     0.552996666667     0.460306666667     0          
C24A     C      0.192333333333     0.610316666667     0.657766666667     0          
O1B      O      0.628493333333     0.376596666667     0.085066666667     0          
O2B      O      0.587093333333     0.304956666667     0.079166666667     0          
C1B      C      0.596563333333     0.342176666667     0.051866666667     0          
C2B      C      0.568553333333     0.347736666667     0.973866666667     0          
C3B      C      0.569983333333     0.387076666667     0.969266666667     0          
H1B      H      0.587043333333     0.409086666667     0.018566666667     0          
C4B      C      0.546273333333     0.393666666667     0.891966666667     0          
H2B      H      0.546783333333     0.420166666667     0.889846666667     0          
C5B      C      0.521963333333     0.362426666667     0.817966666667     0          
C6B      C      0.519033333333     0.322666666667     0.826766666667     0          
H3B      H      0.501463333333     0.300516666667     0.778266666667     0          
C7B      C      0.541733333333     0.315066666667     0.906166666667     0          
H4B      H      0.538583333333     0.287486666667     0.913546666667     0          
C8B      C      0.500703333333     0.372076666667     0.728566666667     0          
C9B      C      0.485373333333     0.399486666667     0.744066666667     0          
H5B      H      0.486143333333     0.410446666667     0.813716666667     0          
C10B     C      0.468413333333     0.411706666667     0.657666666667     0          
C11B     C      0.466193333333     0.394766666667     0.553966666667     0          
C12B     C      0.481333333333     0.365566666667     0.540066666667     0          
H6B      H      0.479533333333     0.353276666667     0.471606666667     0          
C13B     C      0.498413333333     0.355066666667     0.624166666667     0          
H7B      H      0.508883333333     0.335956666667     0.612906666667     0          
C14B     C      0.454403333333     0.441746666667     0.672066666667     0          
H8B      H      0.455453333333     0.452956666667     0.741556666667     0          
C15B     C      0.439373333333     0.454866666667     0.587866666667     0          
C16B     C      0.437633333333     0.437666666667     0.484366666667     0          
H9B      H      0.427723333333     0.446846666667     0.425336666667     0          
C17B     C      0.450233333333     0.408266666667     0.468466666667     0          
H10B     H      0.448233333333     0.396726666667     0.398926666667     0          
C18B     C      0.426323333333     0.487096666667     0.604666666667     0          
C19B     C      0.406563333333     0.487756666667     0.700166666667     0          
H11B     H      0.400873333333     0.466906666667     0.753756666667     0          
C20B     C      0.395043333333     0.518936666667     0.717766666667     0          
H12B     H      0.381773333333     0.519226666667     0.783216666667     0          
C21B     C      0.402953333333     0.549236666667     0.640166666667     0          
C22B     C      0.422273333333     0.548666666667     0.544466666667     0          
H13B     H      0.427543333333     0.569406666667     0.491016666667     0          
C23B     C      0.433913333333     0.517866666667     0.526166666667     0          
H14B     H      0.447003333333     0.517676666667     0.460306666667     0          
C24B     C      0.389683333333     0.582016666667     0.657766666667     0          
Cl1      Cl     0.040893333333     0.716066666667     0.205866666667     0          
Cl2      Cl     0.977553333333     0.626826666667     0.234566666667     0          
C25      C      0.999033333333     0.678766666667     0.281566666667     0          
H15      H      0.009043333333     0.680006666667     0.356056666667     0          
H16      H      0.976303333333     0.686346666667     0.283156666667     0          
Cl3      Cl     0.070513333333     0.573726666667     0.992566666667     0          
Cl4      Cl     0.061933333333     0.574456666667     0.218766666667     0          
C26      C      0.060033333333     0.598466666667     0.104566666667     0          
H17      H      0.031543333333     0.595696666667     0.096616666667     0          
H18      H      0.081633333333     0.629226666667     0.107046666667     0          
C27      C      0.873033333333     0.526866666667     0.120866666667     0          
H19      H      0.847063333333     0.507196666667     0.080276666667     0          
H20      H      0.866503333333     0.545326666667     0.166416666667     0          
Cl5      Cl     0.917033333333     0.559966666667     0.027466666667     0          
Cl6      Cl     0.889233333333     0.498766666667     0.198666666667     0          
H21?     H      0.877303333333     0.553066666667     0.157416666667     0          
H22?     H      0.851433333333     0.519756666667     0.064016666667     0          
Cl7?     Cl     0.917033333333     0.536566666667     0.066466666667     0          
Cl8?     Cl     0.852333333333     0.482366666667     0.219866666667     0          
Cl9?     Cl     0.660833333333     0.292266666667     0.803066666667     0          
H23?     H      0.676413333333     0.331736666667     0.962786666667     0          
H24?     H      0.641603333333     0.337446666667     0.891686666667     0          
Cl1      Cl     0.283933333333     0.324826666667     0.205866666667     0          
Cl2      Cl     0.373173333333     0.350726666667     0.234566666667     0          
C25      C      0.321233333333     0.320266666667     0.281566666667     0          
H15      H      0.319993333333     0.329036666667     0.356056666667     0          
H16      H      0.313653333333     0.289956666667     0.283156666667     0          
Cl3      Cl     0.426273333333     0.496786666667     0.992566666667     0          
Cl4      Cl     0.425543333333     0.487476666667     0.218766666667     0          
C26      C      0.401533333333     0.461566666667     0.104566666667     0          
H17      H      0.404303333333     0.435846666667     0.096616666667     0          
H18      H      0.370773333333     0.452406666667     0.107046666667     0          
C27      C      0.473133333333     0.346166666667     0.120866666667     0          
H19      H      0.492803333333     0.339866666667     0.080276666667     0          
H20      H      0.454673333333     0.321176666667     0.166416666667     0          
Cl5      Cl     0.440033333333     0.357066666667     0.027466666667     0          
Cl6      Cl     0.501233333333     0.390466666667     0.198666666667     0          
H21?     H      0.446933333333     0.324236666667     0.157416666667     0          
H22?     H      0.480243333333     0.331676666667     0.064016666667     0          
Cl7?     Cl     0.463433333333     0.380466666667     0.066466666667     0          
Cl8?     Cl     0.517633333333     0.369966666667     0.219866666667     0          
Cl9?     Cl     0.707733333333     0.368566666667     0.803066666667     0          
H23?     H      0.668263333333     0.344676666667     0.962786666667     0          
H24?     H      0.662553333333     0.304156666667     0.891686666667     0          


