data_BIKNAN

_audit_creation_method RASPA-1.0
_audit_creation_date 2020-4-3
_audit_author_name 'Rocio Bueno-Perez'

_cell_length_a    30.3635
_cell_length_b    30.3635
_cell_length_c    14.9628
_cell_angle_alpha 90
_cell_angle_beta  90
_cell_angle_gamma 120
_cell_volume      11946.7

_symmetry_cell_setting          trigonal
_symmetry_space_group_name_Hall 'P 1'
_symmetry_space_group_name_H-M  'P 1'
_symmetry_Int_Tables_number     1

_symmetry_equiv_pos_as_xyz 'x,y,z'

loop_
_atom_site_label
_atom_site_type_symbol
_atom_site_fract_x
_atom_site_fract_y
_atom_site_fract_z
_atom_site_charge
Zr1      Zr     0.391110000000     0.651680000000     0.071030000000     0          
O1       O      0.403790000000     0.587720000000     0.105400000000     0          
O2       O      0.356220000000     0.549630000000     0.228870000000     0          
O3       O      0.629420000000     0.392790000000     0.623200000000     0          
O4       O      0.574900000000     0.307670000000     0.620500000000     0          
O6       O      0.405000000000     0.723310000000     0.119600000000     0          
C1       C      0.387330000000     0.554570000000     0.168100000000     0          
C2       C      0.407000000000     0.518200000000     0.169600000000     0          
C3       C      0.441800000000     0.522200000000     0.107300000000     0          
H1       H      0.452600000000     0.547600000000     0.062300000000     0          
C4       C      0.461500000000     0.489800000000     0.108900000000     0          
H2       H      0.485800000000     0.493300000000     0.065400000000     0          
C5       C      0.445900000000     0.452300000000     0.173700000000     0          
C6       C      0.410600000000     0.448200000000     0.237000000000     0          
H3       H      0.399400000000     0.422700000000     0.281800000000     0          
C7       C      0.391700000000     0.481500000000     0.234800000000     0          
H4       H      0.368000000000     0.478900000000     0.278800000000     0          
C8       C      0.468800000000     0.418800000000     0.177700000000     0          
C9       C      0.477700000000     0.399200000000     0.100000000000     0          
H5       H      0.467900000000     0.405900000000     0.043700000000     0          
C10      C      0.501000000000     0.369900000000     0.104800000000     0          
H6       H      0.506700000000     0.356300000000     0.051700000000     0          
C11      C      0.516000000000     0.360300000000     0.186200000000     0          
H7       H      0.532000000000     0.340300000000     0.188600000000     0          
C12      C      0.507500000000     0.379800000000     0.265600000000     0          
C13      C      0.484000000000     0.408900000000     0.259300000000     0          
H8       H      0.478100000000     0.422500000000     0.312300000000     0          
C14      C      0.526100000000     0.371900000000     0.352300000000     0          
C15      C      0.526000000000     0.327500000000     0.369700000000     0          
H9       H      0.512000000000     0.300800000000     0.326800000000     0          
C16      C      0.546000000000     0.320500000000     0.448400000000     0          
H10      H      0.544800000000     0.289100000000     0.459400000000     0          
C17      C      0.567400000000     0.358750000000     0.510100000000     0          
C18      C      0.566480000000     0.403050000000     0.495400000000     0          
H11      H      0.580500000000     0.429500000000     0.538500000000     0          
C19      C      0.545040000000     0.409100000000     0.417700000000     0          
H12      H      0.543300000000     0.439200000000     0.409400000000     0          
C20      C      0.592360000000     0.352600000000     0.591500000000     0          
C21      C      0.336200000000     0.447000000000     0.976000000000     0          
C22      C      0.335000000000     0.409100000000     0.977000000000     0          
H13      H      0.312600000000     0.383000000000     0.016400000000     0          
C23      C      0.360000000000     0.402000000000     0.929000000000     0          
H14      H      0.367300000000     0.375900000000     0.940000000000     0          
C24      C      0.376000000000     0.428000000000     0.868000000000     0          
H15      H      0.386500000000     0.416600000000     0.816700000000     0          
C25      C      0.380000000000     0.467000000000     0.869000000000     0          
H16      H      0.398800000000     0.491000000000     0.824400000000     0          
C26      C      0.360800000000     0.476400000000     0.924000000000     0          
H17      H      0.365400000000     0.509700000000     0.927100000000     0          
C27      C      0.301600000000     0.456500000000     0.034100000000     0          
H18      H      0.308400000000     0.491300000000     0.024700000000     0          
H19      H      0.266100000000     0.432400000000     0.018700000000     0          
H20      H      0.307600000000     0.452100000000     0.097000000000     0          
C28?     C      0.597600000000     0.562600000000     0.441000000000     0          
C29?     C      0.546800000000     0.531600000000     0.472500000000     0          
C30?     C      0.507600000000     0.522800000000     0.421100000000     0          
H21?     H      0.513000000000     0.539000000000     0.364700000000     0          
C31?     C      0.461000000000     0.491100000000     0.449400000000     0          
H22?     H      0.432800000000     0.484600000000     0.413000000000     0          
H23?     H      0.597100000000     0.576700000000     0.382700000000     0          
H24?     H      0.616600000000     0.590400000000     0.483600000000     0          
H25?     H      0.614100000000     0.542000000000     0.436100000000     0          
O5       O      0.333330000000     0.666670000000     0.024900000000     0          
Zr1      Zr     0.348320000000     0.739430000000     0.071030000000     0          
O1       O      0.412280000000     0.816070000000     0.105400000000     0          
O2       O      0.450370000000     0.806590000000     0.228870000000     0          
O3       O      0.607210000000     0.236630000000     0.623200000000     0          
O4       O      0.692330000000     0.267230000000     0.620500000000     0          
O6       O      0.276690000000     0.681690000000     0.119600000000     0          
C1       C      0.445430000000     0.832760000000     0.168100000000     0          
C2       C      0.481800000000     0.888800000000     0.169600000000     0          
C3       C      0.477800000000     0.919600000000     0.107300000000     0          
H1       H      0.452400000000     0.905000000000     0.062300000000     0          
C4       C      0.510200000000     0.971700000000     0.108900000000     0          
H2       H      0.506700000000     0.992500000000     0.065400000000     0          
C5       C      0.547700000000     0.993600000000     0.173700000000     0          
C6       C      0.551800000000     0.962400000000     0.237000000000     0          
H3       H      0.577300000000     0.976700000000     0.281800000000     0          
C7       C      0.518500000000     0.910200000000     0.234800000000     0          
H4       H      0.521100000000     0.889100000000     0.278800000000     0          
C8       C      0.581200000000     0.050000000000     0.177700000000     0          
C9       C      0.600800000000     0.078500000000     0.100000000000     0          
H5       H      0.594100000000     0.062000000000     0.043700000000     0          
C10      C      0.630100000000     0.131100000000     0.104800000000     0          
H6       H      0.643700000000     0.150400000000     0.051700000000     0          
C11      C      0.639700000000     0.155700000000     0.186200000000     0          
H7       H      0.659700000000     0.191700000000     0.188600000000     0          
C12      C      0.620200000000     0.127700000000     0.265600000000     0          
C13      C      0.591100000000     0.075100000000     0.259300000000     0          
H8       H      0.577500000000     0.055600000000     0.312300000000     0          
C14      C      0.628100000000     0.154200000000     0.352300000000     0          
C15      C      0.672500000000     0.198500000000     0.369700000000     0          
H9       H      0.699200000000     0.211200000000     0.326800000000     0          
C16      C      0.679500000000     0.225500000000     0.448400000000     0          
H10      H      0.710900000000     0.255700000000     0.459400000000     0          
C17      C      0.641250000000     0.208650000000     0.510100000000     0          
C18      C      0.596950000000     0.163430000000     0.495400000000     0          
H11      H      0.570500000000     0.151000000000     0.538500000000     0          
C19      C      0.590900000000     0.135940000000     0.417700000000     0          
H12      H      0.560800000000     0.104100000000     0.409400000000     0          
C20      C      0.647400000000     0.239760000000     0.591500000000     0          
C21      C      0.553000000000     0.889200000000     0.976000000000     0          
C22      C      0.590900000000     0.925900000000     0.977000000000     0          
H13      H      0.617000000000     0.929600000000     0.016400000000     0          
C23      C      0.598000000000     0.958000000000     0.929000000000     0          
H14      H      0.624100000000     0.991400000000     0.940000000000     0          
C24      C      0.572000000000     0.948000000000     0.868000000000     0          
H15      H      0.583400000000     0.969900000000     0.816700000000     0          
C25      C      0.533000000000     0.913000000000     0.869000000000     0          
H16      H      0.509000000000     0.907800000000     0.824400000000     0          
C26      C      0.523600000000     0.884400000000     0.924000000000     0          
H17      H      0.490300000000     0.855700000000     0.927100000000     0          
C27      C      0.543500000000     0.845100000000     0.034100000000     0          
H18      H      0.508700000000     0.817100000000     0.024700000000     0          
H19      H      0.567600000000     0.833700000000     0.018700000000     0          
H20      H      0.547900000000     0.855500000000     0.097000000000     0          
C28?     C      0.437400000000     0.035000000000     0.441000000000     0          
C29?     C      0.468400000000     0.015200000000     0.472500000000     0          
C30?     C      0.477200000000     0.984800000000     0.421100000000     0          
H21?     H      0.461000000000     0.974000000000     0.364700000000     0          
C31?     C      0.508900000000     0.969900000000     0.449400000000     0          
H22?     H      0.515400000000     0.948200000000     0.413000000000     0          
H23?     H      0.423300000000     0.020400000000     0.382700000000     0          
H24?     H      0.409600000000     0.026200000000     0.483600000000     0          
H25?     H      0.458000000000     0.072100000000     0.436100000000     0          
Zr1      Zr     0.260570000000     0.608890000000     0.071030000000     0          
O1       O      0.183930000000     0.596210000000     0.105400000000     0          
O2       O      0.193410000000     0.643780000000     0.228870000000     0          
O3       O      0.763370000000     0.370580000000     0.623200000000     0          
O4       O      0.732770000000     0.425100000000     0.620500000000     0          
O6       O      0.318310000000     0.595000000000     0.119600000000     0          
C1       C      0.167240000000     0.612670000000     0.168100000000     0          
C2       C      0.111200000000     0.593000000000     0.169600000000     0          
C3       C      0.080400000000     0.558200000000     0.107300000000     0          
H1       H      0.095000000000     0.547400000000     0.062300000000     0          
C4       C      0.028300000000     0.538500000000     0.108900000000     0          
H2       H      0.007500000000     0.514200000000     0.065400000000     0          
C5       C      0.006400000000     0.554100000000     0.173700000000     0          
C6       C      0.037600000000     0.589400000000     0.237000000000     0          
H3       H      0.023300000000     0.600600000000     0.281800000000     0          
C7       C      0.089800000000     0.608300000000     0.234800000000     0          
H4       H      0.110900000000     0.632000000000     0.278800000000     0          
C8       C      0.950000000000     0.531200000000     0.177700000000     0          
C9       C      0.921500000000     0.522300000000     0.100000000000     0          
H5       H      0.938000000000     0.532100000000     0.043700000000     0          
C10      C      0.868900000000     0.499000000000     0.104800000000     0          
H6       H      0.849600000000     0.493300000000     0.051700000000     0          
C11      C      0.844300000000     0.484000000000     0.186200000000     0          
H7       H      0.808300000000     0.468000000000     0.188600000000     0          
C12      C      0.872300000000     0.492500000000     0.265600000000     0          
C13      C      0.924900000000     0.516000000000     0.259300000000     0          
H8       H      0.944400000000     0.521900000000     0.312300000000     0          
C14      C      0.845800000000     0.473900000000     0.352300000000     0          
C15      C      0.801500000000     0.474000000000     0.369700000000     0          
H9       H      0.788800000000     0.488000000000     0.326800000000     0          
C16      C      0.774500000000     0.454000000000     0.448400000000     0          
H10      H      0.744300000000     0.455200000000     0.459400000000     0          
C17      C      0.791350000000     0.432600000000     0.510100000000     0          
C18      C      0.836570000000     0.433520000000     0.495400000000     0          
H11      H      0.849000000000     0.419500000000     0.538500000000     0          
C19      C      0.864060000000     0.454960000000     0.417700000000     0          
H12      H      0.895900000000     0.456700000000     0.409400000000     0          
C20      C      0.760240000000     0.407640000000     0.591500000000     0          
C21      C      0.110800000000     0.663800000000     0.976000000000     0          
C22      C      0.074100000000     0.665000000000     0.977000000000     0          
H13      H      0.070400000000     0.687400000000     0.016400000000     0          
C23      C      0.042000000000     0.640000000000     0.929000000000     0          
H14      H      0.008600000000     0.632700000000     0.940000000000     0          
C24      C      0.052000000000     0.624000000000     0.868000000000     0          
H15      H      0.030100000000     0.613500000000     0.816700000000     0          
C25      C      0.087000000000     0.620000000000     0.869000000000     0          
H16      H      0.092200000000     0.601200000000     0.824400000000     0          
C26      C      0.115600000000     0.639200000000     0.924000000000     0          
H17      H      0.144300000000     0.634600000000     0.927100000000     0          
C27      C      0.154900000000     0.698400000000     0.034100000000     0          
H18      H      0.182900000000     0.691600000000     0.024700000000     0          
H19      H      0.166300000000     0.733900000000     0.018700000000     0          
H20      H      0.144500000000     0.692400000000     0.097000000000     0          
C28?     C      0.965000000000     0.402400000000     0.441000000000     0          
C29?     C      0.984800000000     0.453200000000     0.472500000000     0          
C30?     C      0.015200000000     0.492400000000     0.421100000000     0          
H21?     H      0.026000000000     0.487000000000     0.364700000000     0          
C31?     C      0.030100000000     0.539000000000     0.449400000000     0          
H22?     H      0.051800000000     0.567200000000     0.413000000000     0          
H23?     H      0.979600000000     0.402900000000     0.382700000000     0          
H24?     H      0.973800000000     0.383400000000     0.483600000000     0          
H25?     H      0.927900000000     0.385900000000     0.436100000000     0          
Zr1      Zr     0.608890000000     0.348320000000     0.928970000000     0          
O1       O      0.596210000000     0.412280000000     0.894600000000     0          
O2       O      0.643780000000     0.450370000000     0.771130000000     0          
O3       O      0.370580000000     0.607210000000     0.376800000000     0          
O4       O      0.425100000000     0.692330000000     0.379500000000     0          
O6       O      0.595000000000     0.276690000000     0.880400000000     0          
C1       C      0.612670000000     0.445430000000     0.831900000000     0          
C2       C      0.593000000000     0.481800000000     0.830400000000     0          
C3       C      0.558200000000     0.477800000000     0.892700000000     0          
H1       H      0.547400000000     0.452400000000     0.937700000000     0          
C4       C      0.538500000000     0.510200000000     0.891100000000     0          
H2       H      0.514200000000     0.506700000000     0.934600000000     0          
C5       C      0.554100000000     0.547700000000     0.826300000000     0          
C6       C      0.589400000000     0.551800000000     0.763000000000     0          
H3       H      0.600600000000     0.577300000000     0.718200000000     0          
C7       C      0.608300000000     0.518500000000     0.765200000000     0          
H4       H      0.632000000000     0.521100000000     0.721200000000     0          
C8       C      0.531200000000     0.581200000000     0.822300000000     0          
C9       C      0.522300000000     0.600800000000     0.900000000000     0          
H5       H      0.532100000000     0.594100000000     0.956300000000     0          
C10      C      0.499000000000     0.630100000000     0.895200000000     0          
H6       H      0.493300000000     0.643700000000     0.948300000000     0          
C11      C      0.484000000000     0.639700000000     0.813800000000     0          
H7       H      0.468000000000     0.659700000000     0.811400000000     0          
C12      C      0.492500000000     0.620200000000     0.734400000000     0          
C13      C      0.516000000000     0.591100000000     0.740700000000     0          
H8       H      0.521900000000     0.577500000000     0.687700000000     0          
C14      C      0.473900000000     0.628100000000     0.647700000000     0          
C15      C      0.474000000000     0.672500000000     0.630300000000     0          
H9       H      0.488000000000     0.699200000000     0.673200000000     0          
C16      C      0.454000000000     0.679500000000     0.551600000000     0          
H10      H      0.455200000000     0.710900000000     0.540600000000     0          
C17      C      0.432600000000     0.641250000000     0.489900000000     0          
C18      C      0.433520000000     0.596950000000     0.504600000000     0          
H11      H      0.419500000000     0.570500000000     0.461500000000     0          
C19      C      0.454960000000     0.590900000000     0.582300000000     0          
H12      H      0.456700000000     0.560800000000     0.590600000000     0          
C20      C      0.407640000000     0.647400000000     0.408500000000     0          
C21      C      0.663800000000     0.553000000000     0.024000000000     0          
C22      C      0.665000000000     0.590900000000     0.023000000000     0          
H13      H      0.687400000000     0.617000000000     0.983600000000     0          
C23      C      0.640000000000     0.598000000000     0.071000000000     0          
H14      H      0.632700000000     0.624100000000     0.060000000000     0          
C24      C      0.624000000000     0.572000000000     0.132000000000     0          
H15      H      0.613500000000     0.583400000000     0.183300000000     0          
C25      C      0.620000000000     0.533000000000     0.131000000000     0          
H16      H      0.601200000000     0.509000000000     0.175600000000     0          
C26      C      0.639200000000     0.523600000000     0.076000000000     0          
H17      H      0.634600000000     0.490300000000     0.072900000000     0          
C27      C      0.698400000000     0.543500000000     0.965900000000     0          
H18      H      0.691600000000     0.508700000000     0.975300000000     0          
H19      H      0.733900000000     0.567600000000     0.981300000000     0          
H20      H      0.692400000000     0.547900000000     0.903000000000     0          
C28?     C      0.402400000000     0.437400000000     0.559000000000     0          
C29?     C      0.453200000000     0.468400000000     0.527500000000     0          
C30?     C      0.492400000000     0.477200000000     0.578900000000     0          
H21?     H      0.487000000000     0.461000000000     0.635300000000     0          
C31?     C      0.539000000000     0.508900000000     0.550600000000     0          
H22?     H      0.567200000000     0.515400000000     0.587000000000     0          
H23?     H      0.402900000000     0.423300000000     0.617300000000     0          
H24?     H      0.383400000000     0.409600000000     0.516400000000     0          
H25?     H      0.385900000000     0.458000000000     0.563900000000     0          
O5       O      0.666670000000     0.333330000000     0.975100000000     0          
Zr1      Zr     0.651680000000     0.260570000000     0.928970000000     0          
O1       O      0.587720000000     0.183930000000     0.894600000000     0          
O2       O      0.549630000000     0.193410000000     0.771130000000     0          
O3       O      0.392790000000     0.763370000000     0.376800000000     0          
O4       O      0.307670000000     0.732770000000     0.379500000000     0          
O6       O      0.723310000000     0.318310000000     0.880400000000     0          
C1       C      0.554570000000     0.167240000000     0.831900000000     0          
C2       C      0.518200000000     0.111200000000     0.830400000000     0          
C3       C      0.522200000000     0.080400000000     0.892700000000     0          
H1       H      0.547600000000     0.095000000000     0.937700000000     0          
C4       C      0.489800000000     0.028300000000     0.891100000000     0          
H2       H      0.493300000000     0.007500000000     0.934600000000     0          
C5       C      0.452300000000     0.006400000000     0.826300000000     0          
C6       C      0.448200000000     0.037600000000     0.763000000000     0          
H3       H      0.422700000000     0.023300000000     0.718200000000     0          
C7       C      0.481500000000     0.089800000000     0.765200000000     0          
H4       H      0.478900000000     0.110900000000     0.721200000000     0          
C8       C      0.418800000000     0.950000000000     0.822300000000     0          
C9       C      0.399200000000     0.921500000000     0.900000000000     0          
H5       H      0.405900000000     0.938000000000     0.956300000000     0          
C10      C      0.369900000000     0.868900000000     0.895200000000     0          
H6       H      0.356300000000     0.849600000000     0.948300000000     0          
C11      C      0.360300000000     0.844300000000     0.813800000000     0          
H7       H      0.340300000000     0.808300000000     0.811400000000     0          
C12      C      0.379800000000     0.872300000000     0.734400000000     0          
C13      C      0.408900000000     0.924900000000     0.740700000000     0          
H8       H      0.422500000000     0.944400000000     0.687700000000     0          
C14      C      0.371900000000     0.845800000000     0.647700000000     0          
C15      C      0.327500000000     0.801500000000     0.630300000000     0          
H9       H      0.300800000000     0.788800000000     0.673200000000     0          
C16      C      0.320500000000     0.774500000000     0.551600000000     0          
H10      H      0.289100000000     0.744300000000     0.540600000000     0          
C17      C      0.358750000000     0.791350000000     0.489900000000     0          
C18      C      0.403050000000     0.836570000000     0.504600000000     0          
H11      H      0.429500000000     0.849000000000     0.461500000000     0          
C19      C      0.409100000000     0.864060000000     0.582300000000     0          
H12      H      0.439200000000     0.895900000000     0.590600000000     0          
C20      C      0.352600000000     0.760240000000     0.408500000000     0          
C21      C      0.447000000000     0.110800000000     0.024000000000     0          
C22      C      0.409100000000     0.074100000000     0.023000000000     0          
H13      H      0.383000000000     0.070400000000     0.983600000000     0          
C23      C      0.402000000000     0.042000000000     0.071000000000     0          
H14      H      0.375900000000     0.008600000000     0.060000000000     0          
C24      C      0.428000000000     0.052000000000     0.132000000000     0          
H15      H      0.416600000000     0.030100000000     0.183300000000     0          
C25      C      0.467000000000     0.087000000000     0.131000000000     0          
H16      H      0.491000000000     0.092200000000     0.175600000000     0          
C26      C      0.476400000000     0.115600000000     0.076000000000     0          
H17      H      0.509700000000     0.144300000000     0.072900000000     0          
C27      C      0.456500000000     0.154900000000     0.965900000000     0          
H18      H      0.491300000000     0.182900000000     0.975300000000     0          
H19      H      0.432400000000     0.166300000000     0.981300000000     0          
H20      H      0.452100000000     0.144500000000     0.903000000000     0          
C28?     C      0.562600000000     0.965000000000     0.559000000000     0          
C29?     C      0.531600000000     0.984800000000     0.527500000000     0          
C30?     C      0.522800000000     0.015200000000     0.578900000000     0          
H21?     H      0.539000000000     0.026000000000     0.635300000000     0          
C31?     C      0.491100000000     0.030100000000     0.550600000000     0          
H22?     H      0.484600000000     0.051800000000     0.587000000000     0          
H23?     H      0.576700000000     0.979600000000     0.617300000000     0          
H24?     H      0.590400000000     0.973800000000     0.516400000000     0          
H25?     H      0.542000000000     0.927900000000     0.563900000000     0          
Zr1      Zr     0.739430000000     0.391110000000     0.928970000000     0          
O1       O      0.816070000000     0.403790000000     0.894600000000     0          
O2       O      0.806590000000     0.356220000000     0.771130000000     0          
O3       O      0.236630000000     0.629420000000     0.376800000000     0          
O4       O      0.267230000000     0.574900000000     0.379500000000     0          
O6       O      0.681690000000     0.405000000000     0.880400000000     0          
C1       C      0.832760000000     0.387330000000     0.831900000000     0          
C2       C      0.888800000000     0.407000000000     0.830400000000     0          
C3       C      0.919600000000     0.441800000000     0.892700000000     0          
H1       H      0.905000000000     0.452600000000     0.937700000000     0          
C4       C      0.971700000000     0.461500000000     0.891100000000     0          
H2       H      0.992500000000     0.485800000000     0.934600000000     0          
C5       C      0.993600000000     0.445900000000     0.826300000000     0          
C6       C      0.962400000000     0.410600000000     0.763000000000     0          
H3       H      0.976700000000     0.399400000000     0.718200000000     0          
C7       C      0.910200000000     0.391700000000     0.765200000000     0          
H4       H      0.889100000000     0.368000000000     0.721200000000     0          
C8       C      0.050000000000     0.468800000000     0.822300000000     0          
C9       C      0.078500000000     0.477700000000     0.900000000000     0          
H5       H      0.062000000000     0.467900000000     0.956300000000     0          
C10      C      0.131100000000     0.501000000000     0.895200000000     0          
H6       H      0.150400000000     0.506700000000     0.948300000000     0          
C11      C      0.155700000000     0.516000000000     0.813800000000     0          
H7       H      0.191700000000     0.532000000000     0.811400000000     0          
C12      C      0.127700000000     0.507500000000     0.734400000000     0          
C13      C      0.075100000000     0.484000000000     0.740700000000     0          
H8       H      0.055600000000     0.478100000000     0.687700000000     0          
C14      C      0.154200000000     0.526100000000     0.647700000000     0          
C15      C      0.198500000000     0.526000000000     0.630300000000     0          
H9       H      0.211200000000     0.512000000000     0.673200000000     0          
C16      C      0.225500000000     0.546000000000     0.551600000000     0          
H10      H      0.255700000000     0.544800000000     0.540600000000     0          
C17      C      0.208650000000     0.567400000000     0.489900000000     0          
C18      C      0.163430000000     0.566480000000     0.504600000000     0          
H11      H      0.151000000000     0.580500000000     0.461500000000     0          
C19      C      0.135940000000     0.545040000000     0.582300000000     0          
H12      H      0.104100000000     0.543300000000     0.590600000000     0          
C20      C      0.239760000000     0.592360000000     0.408500000000     0          
C21      C      0.889200000000     0.336200000000     0.024000000000     0          
C22      C      0.925900000000     0.335000000000     0.023000000000     0          
H13      H      0.929600000000     0.312600000000     0.983600000000     0          
C23      C      0.958000000000     0.360000000000     0.071000000000     0          
H14      H      0.991400000000     0.367300000000     0.060000000000     0          
C24      C      0.948000000000     0.376000000000     0.132000000000     0          
H15      H      0.969900000000     0.386500000000     0.183300000000     0          
C25      C      0.913000000000     0.380000000000     0.131000000000     0          
H16      H      0.907800000000     0.398800000000     0.175600000000     0          
C26      C      0.884400000000     0.360800000000     0.076000000000     0          
H17      H      0.855700000000     0.365400000000     0.072900000000     0          
C27      C      0.845100000000     0.301600000000     0.965900000000     0          
H18      H      0.817100000000     0.308400000000     0.975300000000     0          
H19      H      0.833700000000     0.266100000000     0.981300000000     0          
H20      H      0.855500000000     0.307600000000     0.903000000000     0          
C28?     C      0.035000000000     0.597600000000     0.559000000000     0          
C29?     C      0.015200000000     0.546800000000     0.527500000000     0          
C30?     C      0.984800000000     0.507600000000     0.578900000000     0          
H21?     H      0.974000000000     0.513000000000     0.635300000000     0          
C31?     C      0.969900000000     0.461000000000     0.550600000000     0          
H22?     H      0.948200000000     0.432800000000     0.587000000000     0          
H23?     H      0.020400000000     0.597100000000     0.617300000000     0          
H24?     H      0.026200000000     0.616600000000     0.516400000000     0          
H25?     H      0.072100000000     0.614100000000     0.563900000000     0          
Zr1      Zr     0.057776666667     0.985013333333     0.404363333333     0          
O1       O      0.070456666667     0.921053333333     0.438733333333     0          
O2       O      0.022886666667     0.882963333333     0.562203333333     0          
O3       O      0.296086666667     0.726123333333     0.956533333333     0          
O4       O      0.241566666667     0.641003333333     0.953833333333     0          
O6       O      0.071666666667     0.056643333333     0.452933333333     0          
C1       C      0.053996666667     0.887903333333     0.501433333333     0          
C2       C      0.073666666667     0.851533333333     0.502933333333     0          
C3       C      0.108466666667     0.855533333333     0.440633333333     0          
H1       H      0.119266666667     0.880933333333     0.395633333333     0          
C4       C      0.128166666667     0.823133333333     0.442233333333     0          
H2       H      0.152466666667     0.826633333333     0.398733333333     0          
C5       C      0.112566666667     0.785633333333     0.507033333333     0          
C6       C      0.077266666667     0.781533333333     0.570333333333     0          
H3       H      0.066066666667     0.756033333333     0.615133333333     0          
C7       C      0.058366666667     0.814833333333     0.568133333333     0          
H4       H      0.034666666667     0.812233333333     0.612133333333     0          
C8       C      0.135466666667     0.752133333333     0.511033333333     0          
C9       C      0.144366666667     0.732533333333     0.433333333333     0          
H5       H      0.134566666667     0.739233333333     0.377033333333     0          
C10      C      0.167666666667     0.703233333333     0.438133333333     0          
H6       H      0.173366666667     0.689633333333     0.385033333333     0          
C11      C      0.182666666667     0.693633333333     0.519533333333     0          
H7       H      0.198666666667     0.673633333333     0.521933333333     0          
C12      C      0.174166666667     0.713133333333     0.598933333333     0          
C13      C      0.150666666667     0.742233333333     0.592633333333     0          
H8       H      0.144766666667     0.755833333333     0.645633333333     0          
C14      C      0.192766666667     0.705233333333     0.685633333333     0          
C15      C      0.192666666667     0.660833333333     0.703033333333     0          
H9       H      0.178666666667     0.634133333333     0.660133333333     0          
C16      C      0.212666666667     0.653833333333     0.781733333333     0          
H10      H      0.211466666667     0.622433333333     0.792733333333     0          
C17      C      0.234066666667     0.692083333333     0.843433333333     0          
C18      C      0.233146666667     0.736383333333     0.828733333333     0          
H11      H      0.247166666667     0.762833333333     0.871833333333     0          
C19      C      0.211706666667     0.742433333333     0.751033333333     0          
H12      H      0.209966666667     0.772533333333     0.742733333333     0          
C20      C      0.259026666667     0.685933333333     0.924833333333     0          
C21      C      0.002866666667     0.780333333333     0.309333333333     0          
C22      C      0.001666666667     0.742433333333     0.310333333333     0          
H13      H      0.979266666667     0.716333333333     0.349733333333     0          
C23      C      0.026666666667     0.735333333333     0.262333333333     0          
H14      H      0.033966666667     0.709233333333     0.273333333333     0          
C24      C      0.042666666667     0.761333333333     0.201333333333     0          
H15      H      0.053166666667     0.749933333333     0.150033333333     0          
C25      C      0.046666666667     0.800333333333     0.202333333333     0          
H16      H      0.065466666667     0.824333333333     0.157733333333     0          
C26      C      0.027466666667     0.809733333333     0.257333333333     0          
H17      H      0.032066666667     0.843033333333     0.260433333333     0          
C27      C      0.968266666667     0.789833333333     0.367433333333     0          
H18      H      0.975066666667     0.824633333333     0.358033333333     0          
H19      H      0.932766666667     0.765733333333     0.352033333333     0          
H20      H      0.974266666667     0.785433333333     0.430333333333     0          
C28?     C      0.264266666667     0.895933333333     0.774333333333     0          
C29?     C      0.213466666667     0.864933333333     0.805833333333     0          
C30?     C      0.174266666667     0.856133333333     0.754433333333     0          
H21?     H      0.179666666667     0.872333333333     0.698033333333     0          
C31?     C      0.127666666667     0.824433333333     0.782733333333     0          
H22?     H      0.099466666667     0.817933333333     0.746333333333     0          
H23?     H      0.263766666667     0.910033333333     0.716033333333     0          
H24?     H      0.283266666667     0.923733333333     0.816933333333     0          
H25?     H      0.280766666667     0.875333333333     0.769433333333     0          
O5       O      0.999996666667     0.000003333333     0.358233333333     0          
Zr1      Zr     0.014986666667     0.072763333333     0.404363333333     0          
O1       O      0.078946666667     0.149403333333     0.438733333333     0          
O2       O      0.117036666667     0.139923333333     0.562203333333     0          
O3       O      0.273876666667     0.569963333333     0.956533333333     0          
O4       O      0.358996666667     0.600563333333     0.953833333333     0          
O6       O      0.943356666667     0.015023333333     0.452933333333     0          
C1       C      0.112096666667     0.166093333333     0.501433333333     0          
C2       C      0.148466666667     0.222133333333     0.502933333333     0          
C3       C      0.144466666667     0.252933333333     0.440633333333     0          
H1       H      0.119066666667     0.238333333333     0.395633333333     0          
C4       C      0.176866666667     0.305033333333     0.442233333333     0          
H2       H      0.173366666667     0.325833333333     0.398733333333     0          
C5       C      0.214366666667     0.326933333333     0.507033333333     0          
C6       C      0.218466666667     0.295733333333     0.570333333333     0          
H3       H      0.243966666667     0.310033333333     0.615133333333     0          
C7       C      0.185166666667     0.243533333333     0.568133333333     0          
H4       H      0.187766666667     0.222433333333     0.612133333333     0          
C8       C      0.247866666667     0.383333333333     0.511033333333     0          
C9       C      0.267466666667     0.411833333333     0.433333333333     0          
H5       H      0.260766666667     0.395333333333     0.377033333333     0          
C10      C      0.296766666667     0.464433333333     0.438133333333     0          
H6       H      0.310366666667     0.483733333333     0.385033333333     0          
C11      C      0.306366666667     0.489033333333     0.519533333333     0          
H7       H      0.326366666667     0.525033333333     0.521933333333     0          
C12      C      0.286866666667     0.461033333333     0.598933333333     0          
C13      C      0.257766666667     0.408433333333     0.592633333333     0          
H8       H      0.244166666667     0.388933333333     0.645633333333     0          
C14      C      0.294766666667     0.487533333333     0.685633333333     0          
C15      C      0.339166666667     0.531833333333     0.703033333333     0          
H9       H      0.365866666667     0.544533333333     0.660133333333     0          
C16      C      0.346166666667     0.558833333333     0.781733333333     0          
H10      H      0.377566666667     0.589033333333     0.792733333333     0          
C17      C      0.307916666667     0.541983333333     0.843433333333     0          
C18      C      0.263616666667     0.496763333333     0.828733333333     0          
H11      H      0.237166666667     0.484333333333     0.871833333333     0          
C19      C      0.257566666667     0.469273333333     0.751033333333     0          
H12      H      0.227466666667     0.437433333333     0.742733333333     0          
C20      C      0.314066666667     0.573093333333     0.924833333333     0          
C21      C      0.219666666667     0.222533333333     0.309333333333     0          
C22      C      0.257566666667     0.259233333333     0.310333333333     0          
H13      H      0.283666666667     0.262933333333     0.349733333333     0          
C23      C      0.264666666667     0.291333333333     0.262333333333     0          
H14      H      0.290766666667     0.324733333333     0.273333333333     0          
C24      C      0.238666666667     0.281333333333     0.201333333333     0          
H15      H      0.250066666667     0.303233333333     0.150033333333     0          
C25      C      0.199666666667     0.246333333333     0.202333333333     0          
H16      H      0.175666666667     0.241133333333     0.157733333333     0          
C26      C      0.190266666667     0.217733333333     0.257333333333     0          
H17      H      0.156966666667     0.189033333333     0.260433333333     0          
C27      C      0.210166666667     0.178433333333     0.367433333333     0          
H18      H      0.175366666667     0.150433333333     0.358033333333     0          
H19      H      0.234266666667     0.167033333333     0.352033333333     0          
H20      H      0.214566666667     0.188833333333     0.430333333333     0          
C28?     C      0.104066666667     0.368333333333     0.774333333333     0          
C29?     C      0.135066666667     0.348533333333     0.805833333333     0          
C30?     C      0.143866666667     0.318133333333     0.754433333333     0          
H21?     H      0.127666666667     0.307333333333     0.698033333333     0          
C31?     C      0.175566666667     0.303233333333     0.782733333333     0          
H22?     H      0.182066666667     0.281533333333     0.746333333333     0          
H23?     H      0.089966666667     0.353733333333     0.716033333333     0          
H24?     H      0.076266666667     0.359533333333     0.816933333333     0          
H25?     H      0.124666666667     0.405433333333     0.769433333333     0          
Zr1      Zr     0.927236666667     0.942223333333     0.404363333333     0          
O1       O      0.850596666667     0.929543333333     0.438733333333     0          
O2       O      0.860076666667     0.977113333333     0.562203333333     0          
O3       O      0.430036666667     0.703913333333     0.956533333333     0          
O4       O      0.399436666667     0.758433333333     0.953833333333     0          
O6       O      0.984976666667     0.928333333333     0.452933333333     0          
C1       C      0.833906666667     0.946003333333     0.501433333333     0          
C2       C      0.777866666667     0.926333333333     0.502933333333     0          
C3       C      0.747066666667     0.891533333333     0.440633333333     0          
H1       H      0.761666666667     0.880733333333     0.395633333333     0          
C4       C      0.694966666667     0.871833333333     0.442233333333     0          
H2       H      0.674166666667     0.847533333333     0.398733333333     0          
C5       C      0.673066666667     0.887433333333     0.507033333333     0          
C6       C      0.704266666667     0.922733333333     0.570333333333     0          
H3       H      0.689966666667     0.933933333333     0.615133333333     0          
C7       C      0.756466666667     0.941633333333     0.568133333333     0          
H4       H      0.777566666667     0.965333333333     0.612133333333     0          
C8       C      0.616666666667     0.864533333333     0.511033333333     0          
C9       C      0.588166666667     0.855633333333     0.433333333333     0          
H5       H      0.604666666667     0.865433333333     0.377033333333     0          
C10      C      0.535566666667     0.832333333333     0.438133333333     0          
H6       H      0.516266666667     0.826633333333     0.385033333333     0          
C11      C      0.510966666667     0.817333333333     0.519533333333     0          
H7       H      0.474966666667     0.801333333333     0.521933333333     0          
C12      C      0.538966666667     0.825833333333     0.598933333333     0          
C13      C      0.591566666667     0.849333333333     0.592633333333     0          
H8       H      0.611066666667     0.855233333333     0.645633333333     0          
C14      C      0.512466666667     0.807233333333     0.685633333333     0          
C15      C      0.468166666667     0.807333333333     0.703033333333     0          
H9       H      0.455466666667     0.821333333333     0.660133333333     0          
C16      C      0.441166666667     0.787333333333     0.781733333333     0          
H10      H      0.410966666667     0.788533333333     0.792733333333     0          
C17      C      0.458016666667     0.765933333333     0.843433333333     0          
C18      C      0.503236666667     0.766853333333     0.828733333333     0          
H11      H      0.515666666667     0.752833333333     0.871833333333     0          
C19      C      0.530726666667     0.788293333333     0.751033333333     0          
H12      H      0.562566666667     0.790033333333     0.742733333333     0          
C20      C      0.426906666667     0.740973333333     0.924833333333     0          
C21      C      0.777466666667     0.997133333333     0.309333333333     0          
C22      C      0.740766666667     0.998333333333     0.310333333333     0          
H13      H      0.737066666667     0.020733333333     0.349733333333     0          
C23      C      0.708666666667     0.973333333333     0.262333333333     0          
H14      H      0.675266666667     0.966033333333     0.273333333333     0          
C24      C      0.718666666667     0.957333333333     0.201333333333     0          
H15      H      0.696766666667     0.946833333333     0.150033333333     0          
C25      C      0.753666666667     0.953333333333     0.202333333333     0          
H16      H      0.758866666667     0.934533333333     0.157733333333     0          
C26      C      0.782266666667     0.972533333333     0.257333333333     0          
H17      H      0.810966666667     0.967933333333     0.260433333333     0          
C27      C      0.821566666667     0.031733333333     0.367433333333     0          
H18      H      0.849566666667     0.024933333333     0.358033333333     0          
H19      H      0.832966666667     0.067233333333     0.352033333333     0          
H20      H      0.811166666667     0.025733333333     0.430333333333     0          
C28?     C      0.631666666667     0.735733333333     0.774333333333     0          
C29?     C      0.651466666667     0.786533333333     0.805833333333     0          
C30?     C      0.681866666667     0.825733333333     0.754433333333     0          
H21?     H      0.692666666667     0.820333333333     0.698033333333     0          
C31?     C      0.696766666667     0.872333333333     0.782733333333     0          
H22?     H      0.718466666667     0.900533333333     0.746333333333     0          
H23?     H      0.646266666667     0.736233333333     0.716033333333     0          
H24?     H      0.640466666667     0.716733333333     0.816933333333     0          
H25?     H      0.594566666667     0.719233333333     0.769433333333     0          
Zr1      Zr     0.275556666667     0.681653333333     0.262303333333     0          
O1       O      0.262876666667     0.745613333333     0.227933333333     0          
O2       O      0.310446666667     0.783703333333     0.104463333333     0          
O3       O      0.037246666667     0.940543333333     0.710133333333     0          
O4       O      0.091766666667     0.025663333333     0.712833333333     0          
O6       O      0.261666666667     0.610023333333     0.213733333333     0          
C1       C      0.279336666667     0.778763333333     0.165233333333     0          
C2       C      0.259666666667     0.815133333333     0.163733333333     0          
C3       C      0.224866666667     0.811133333333     0.226033333333     0          
H1       H      0.214066666667     0.785733333333     0.271033333333     0          
C4       C      0.205166666667     0.843533333333     0.224433333333     0          
H2       H      0.180866666667     0.840033333333     0.267933333333     0          
C5       C      0.220766666667     0.881033333333     0.159633333333     0          
C6       C      0.256066666667     0.885133333333     0.096333333333     0          
H3       H      0.267266666667     0.910633333333     0.051533333333     0          
C7       C      0.274966666667     0.851833333333     0.098533333333     0          
H4       H      0.298666666667     0.854433333333     0.054533333333     0          
C8       C      0.197866666667     0.914533333333     0.155633333333     0          
C9       C      0.188966666667     0.934133333333     0.233333333333     0          
H5       H      0.198766666667     0.927433333333     0.289633333333     0          
C10      C      0.165666666667     0.963433333333     0.228533333333     0          
H6       H      0.159966666667     0.977033333333     0.281633333333     0          
C11      C      0.150666666667     0.973033333333     0.147133333333     0          
H7       H      0.134666666667     0.993033333333     0.144733333333     0          
C12      C      0.159166666667     0.953533333333     0.067733333333     0          
C13      C      0.182666666667     0.924433333333     0.074033333333     0          
H8       H      0.188566666667     0.910833333333     0.021033333333     0          
C14      C      0.140566666667     0.961433333333     0.981033333333     0          
C15      C      0.140666666667     0.005833333333     0.963633333333     0          
H9       H      0.154666666667     0.032533333333     0.006533333333     0          
C16      C      0.120666666667     0.012833333333     0.884933333333     0          
H10      H      0.121866666667     0.044233333333     0.873933333333     0          
C17      C      0.099266666667     0.974583333333     0.823233333333     0          
C18      C      0.100186666667     0.930283333333     0.837933333333     0          
H11      H      0.086166666667     0.903833333333     0.794833333333     0          
C19      C      0.121626666667     0.924233333333     0.915633333333     0          
H12      H      0.123366666667     0.894133333333     0.923933333333     0          
C20      C      0.074306666667     0.980733333333     0.741833333333     0          
C21      C      0.330466666667     0.886333333333     0.357333333333     0          
C22      C      0.331666666667     0.924233333333     0.356333333333     0          
H13      H      0.354066666667     0.950333333333     0.316933333333     0          
C23      C      0.306666666667     0.931333333333     0.404333333333     0          
H14      H      0.299366666667     0.957433333333     0.393333333333     0          
C24      C      0.290666666667     0.905333333333     0.465333333333     0          
H15      H      0.280166666667     0.916733333333     0.516633333333     0          
C25      C      0.286666666667     0.866333333333     0.464333333333     0          
H16      H      0.267866666667     0.842333333333     0.508933333333     0          
C26      C      0.305866666667     0.856933333333     0.409333333333     0          
H17      H      0.301266666667     0.823633333333     0.406233333333     0          
C27      C      0.365066666667     0.876833333333     0.299233333333     0          
H18      H      0.358266666667     0.842033333333     0.308633333333     0          
H19      H      0.400566666667     0.900933333333     0.314633333333     0          
H20      H      0.359066666667     0.881233333333     0.236333333333     0          
C28?     C      0.069066666667     0.770733333333     0.892333333333     0          
C29?     C      0.119866666667     0.801733333333     0.860833333333     0          
C30?     C      0.159066666667     0.810533333333     0.912233333333     0          
H21?     H      0.153666666667     0.794333333333     0.968633333333     0          
C31?     C      0.205666666667     0.842233333333     0.883933333333     0          
H22?     H      0.233866666667     0.848733333333     0.920333333333     0          
H23?     H      0.069566666667     0.756633333333     0.950633333333     0          
H24?     H      0.050066666667     0.742933333333     0.849733333333     0          
H25?     H      0.052566666667     0.791333333333     0.897233333333     0          
O5       O      0.333336666667     0.666663333333     0.308433333333     0          
Zr1      Zr     0.318346666667     0.593903333333     0.262303333333     0          
O1       O      0.254386666667     0.517263333333     0.227933333333     0          
O2       O      0.216296666667     0.526743333333     0.104463333333     0          
O3       O      0.059456666667     0.096703333333     0.710133333333     0          
O4       O      0.974336666667     0.066103333333     0.712833333333     0          
O6       O      0.389976666667     0.651643333333     0.213733333333     0          
C1       C      0.221236666667     0.500573333333     0.165233333333     0          
C2       C      0.184866666667     0.444533333333     0.163733333333     0          
C3       C      0.188866666667     0.413733333333     0.226033333333     0          
H1       H      0.214266666667     0.428333333333     0.271033333333     0          
C4       C      0.156466666667     0.361633333333     0.224433333333     0          
H2       H      0.159966666667     0.340833333333     0.267933333333     0          
C5       C      0.118966666667     0.339733333333     0.159633333333     0          
C6       C      0.114866666667     0.370933333333     0.096333333333     0          
H3       H      0.089366666667     0.356633333333     0.051533333333     0          
C7       C      0.148166666667     0.423133333333     0.098533333333     0          
H4       H      0.145566666667     0.444233333333     0.054533333333     0          
C8       C      0.085466666667     0.283333333333     0.155633333333     0          
C9       C      0.065866666667     0.254833333333     0.233333333333     0          
H5       H      0.072566666667     0.271333333333     0.289633333333     0          
C10      C      0.036566666667     0.202233333333     0.228533333333     0          
H6       H      0.022966666667     0.182933333333     0.281633333333     0          
C11      C      0.026966666667     0.177633333333     0.147133333333     0          
H7       H      0.006966666667     0.141633333333     0.144733333333     0          
C12      C      0.046466666667     0.205633333333     0.067733333333     0          
C13      C      0.075566666667     0.258233333333     0.074033333333     0          
H8       H      0.089166666667     0.277733333333     0.021033333333     0          
C14      C      0.038566666667     0.179133333333     0.981033333333     0          
C15      C      0.994166666667     0.134833333333     0.963633333333     0          
H9       H      0.967466666667     0.122133333333     0.006533333333     0          
C16      C      0.987166666667     0.107833333333     0.884933333333     0          
H10      H      0.955766666667     0.077633333333     0.873933333333     0          
C17      C      0.025416666667     0.124683333333     0.823233333333     0          
C18      C      0.069716666667     0.169903333333     0.837933333333     0          
H11      H      0.096166666667     0.182333333333     0.794833333333     0          
C19      C      0.075766666667     0.197393333333     0.915633333333     0          
H12      H      0.105866666667     0.229233333333     0.923933333333     0          
C20      C      0.019266666667     0.093573333333     0.741833333333     0          
C21      C      0.113666666667     0.444133333333     0.357333333333     0          
C22      C      0.075766666667     0.407433333333     0.356333333333     0          
H13      H      0.049666666667     0.403733333333     0.316933333333     0          
C23      C      0.068666666667     0.375333333333     0.404333333333     0          
H14      H      0.042566666667     0.341933333333     0.393333333333     0          
C24      C      0.094666666667     0.385333333333     0.465333333333     0          
H15      H      0.083266666667     0.363433333333     0.516633333333     0          
C25      C      0.133666666667     0.420333333333     0.464333333333     0          
H16      H      0.157666666667     0.425533333333     0.508933333333     0          
C26      C      0.143066666667     0.448933333333     0.409333333333     0          
H17      H      0.176366666667     0.477633333333     0.406233333333     0          
C27      C      0.123166666667     0.488233333333     0.299233333333     0          
H18      H      0.157966666667     0.516233333333     0.308633333333     0          
H19      H      0.099066666667     0.499633333333     0.314633333333     0          
H20      H      0.118766666667     0.477833333333     0.236333333333     0          
C28?     C      0.229266666667     0.298333333333     0.892333333333     0          
C29?     C      0.198266666667     0.318133333333     0.860833333333     0          
C30?     C      0.189466666667     0.348533333333     0.912233333333     0          
H21?     H      0.205666666667     0.359333333333     0.968633333333     0          
C31?     C      0.157766666667     0.363433333333     0.883933333333     0          
H22?     H      0.151266666667     0.385133333333     0.920333333333     0          
H23?     H      0.243366666667     0.312933333333     0.950633333333     0          
H24?     H      0.257066666667     0.307133333333     0.849733333333     0          
H25?     H      0.208666666667     0.261233333333     0.897233333333     0          
Zr1      Zr     0.406096666667     0.724443333333     0.262303333333     0          
O1       O      0.482736666667     0.737123333333     0.227933333333     0          
O2       O      0.473256666667     0.689553333333     0.104463333333     0          
O3       O      0.903296666667     0.962753333333     0.710133333333     0          
O4       O      0.933896666667     0.908233333333     0.712833333333     0          
O6       O      0.348356666667     0.738333333333     0.213733333333     0          
C1       C      0.499426666667     0.720663333333     0.165233333333     0          
C2       C      0.555466666667     0.740333333333     0.163733333333     0          
C3       C      0.586266666667     0.775133333333     0.226033333333     0          
H1       H      0.571666666667     0.785933333333     0.271033333333     0          
C4       C      0.638366666667     0.794833333333     0.224433333333     0          
H2       H      0.659166666667     0.819133333333     0.267933333333     0          
C5       C      0.660266666667     0.779233333333     0.159633333333     0          
C6       C      0.629066666667     0.743933333333     0.096333333333     0          
H3       H      0.643366666667     0.732733333333     0.051533333333     0          
C7       C      0.576866666667     0.725033333333     0.098533333333     0          
H4       H      0.555766666667     0.701333333333     0.054533333333     0          
C8       C      0.716666666667     0.802133333333     0.155633333333     0          
C9       C      0.745166666667     0.811033333333     0.233333333333     0          
H5       H      0.728666666667     0.801233333333     0.289633333333     0          
C10      C      0.797766666667     0.834333333333     0.228533333333     0          
H6       H      0.817066666667     0.840033333333     0.281633333333     0          
C11      C      0.822366666667     0.849333333333     0.147133333333     0          
H7       H      0.858366666667     0.865333333333     0.144733333333     0          
C12      C      0.794366666667     0.840833333333     0.067733333333     0          
C13      C      0.741766666667     0.817333333333     0.074033333333     0          
H8       H      0.722266666667     0.811433333333     0.021033333333     0          
C14      C      0.820866666667     0.859433333333     0.981033333333     0          
C15      C      0.865166666667     0.859333333333     0.963633333333     0          
H9       H      0.877866666667     0.845333333333     0.006533333333     0          
C16      C      0.892166666667     0.879333333333     0.884933333333     0          
H10      H      0.922366666667     0.878133333333     0.873933333333     0          
C17      C      0.875316666667     0.900733333333     0.823233333333     0          
C18      C      0.830096666667     0.899813333333     0.837933333333     0          
H11      H      0.817666666667     0.913833333333     0.794833333333     0          
C19      C      0.802606666667     0.878373333333     0.915633333333     0          
H12      H      0.770766666667     0.876633333333     0.923933333333     0          
C20      C      0.906426666667     0.925693333333     0.741833333333     0          
C21      C      0.555866666667     0.669533333333     0.357333333333     0          
C22      C      0.592566666667     0.668333333333     0.356333333333     0          
H13      H      0.596266666667     0.645933333333     0.316933333333     0          
C23      C      0.624666666667     0.693333333333     0.404333333333     0          
H14      H      0.658066666667     0.700633333333     0.393333333333     0          
C24      C      0.614666666667     0.709333333333     0.465333333333     0          
H15      H      0.636566666667     0.719833333333     0.516633333333     0          
C25      C      0.579666666667     0.713333333333     0.464333333333     0          
H16      H      0.574466666667     0.732133333333     0.508933333333     0          
C26      C      0.551066666667     0.694133333333     0.409333333333     0          
H17      H      0.522366666667     0.698733333333     0.406233333333     0          
C27      C      0.511766666667     0.634933333333     0.299233333333     0          
H18      H      0.483766666667     0.641733333333     0.308633333333     0          
H19      H      0.500366666667     0.599433333333     0.314633333333     0          
H20      H      0.522166666667     0.640933333333     0.236333333333     0          
C28?     C      0.701666666667     0.930933333333     0.892333333333     0          
C29?     C      0.681866666667     0.880133333333     0.860833333333     0          
C30?     C      0.651466666667     0.840933333333     0.912233333333     0          
H21?     H      0.640666666667     0.846333333333     0.968633333333     0          
C31?     C      0.636566666667     0.794333333333     0.883933333333     0          
H22?     H      0.614866666667     0.766133333333     0.920333333333     0          
H23?     H      0.687066666667     0.930433333333     0.950633333333     0          
H24?     H      0.692866666667     0.949933333333     0.849733333333     0          
H25?     H      0.738766666667     0.947433333333     0.897233333333     0          
Zr1      Zr     0.724443333333     0.318346666667     0.737696666667     0          
O1       O      0.737123333333     0.254386666667     0.772066666667     0          
O2       O      0.689553333333     0.216296666667     0.895536666667     0          
O3       O      0.962753333333     0.059456666667     0.289866666667     0          
O4       O      0.908233333333     0.974336666667     0.287166666667     0          
O6       O      0.738333333333     0.389976666667     0.786266666667     0          
C1       C      0.720663333333     0.221236666667     0.834766666667     0          
C2       C      0.740333333333     0.184866666667     0.836266666667     0          
C3       C      0.775133333333     0.188866666667     0.773966666667     0          
H1       H      0.785933333333     0.214266666667     0.728966666667     0          
C4       C      0.794833333333     0.156466666667     0.775566666667     0          
H2       H      0.819133333333     0.159966666667     0.732066666667     0          
C5       C      0.779233333333     0.118966666667     0.840366666667     0          
C6       C      0.743933333333     0.114866666667     0.903666666667     0          
H3       H      0.732733333333     0.089366666667     0.948466666667     0          
C7       C      0.725033333333     0.148166666667     0.901466666667     0          
H4       H      0.701333333333     0.145566666667     0.945466666667     0          
C8       C      0.802133333333     0.085466666667     0.844366666667     0          
C9       C      0.811033333333     0.065866666667     0.766666666667     0          
H5       H      0.801233333333     0.072566666667     0.710366666667     0          
C10      C      0.834333333333     0.036566666667     0.771466666667     0          
H6       H      0.840033333333     0.022966666667     0.718366666667     0          
C11      C      0.849333333333     0.026966666667     0.852866666667     0          
H7       H      0.865333333333     0.006966666667     0.855266666667     0          
C12      C      0.840833333333     0.046466666667     0.932266666667     0          
C13      C      0.817333333333     0.075566666667     0.925966666667     0          
H8       H      0.811433333333     0.089166666667     0.978966666667     0          
C14      C      0.859433333333     0.038566666667     0.018966666667     0          
C15      C      0.859333333333     0.994166666667     0.036366666667     0          
H9       H      0.845333333333     0.967466666667     0.993466666667     0          
C16      C      0.879333333333     0.987166666667     0.115066666667     0          
H10      H      0.878133333333     0.955766666667     0.126066666667     0          
C17      C      0.900733333333     0.025416666667     0.176766666667     0          
C18      C      0.899813333333     0.069716666667     0.162066666667     0          
H11      H      0.913833333333     0.096166666667     0.205166666667     0          
C19      C      0.878373333333     0.075766666667     0.084366666667     0          
H12      H      0.876633333333     0.105866666667     0.076066666667     0          
C20      C      0.925693333333     0.019266666667     0.258166666667     0          
C21      C      0.669533333333     0.113666666667     0.642666666667     0          
C22      C      0.668333333333     0.075766666667     0.643666666667     0          
H13      H      0.645933333333     0.049666666667     0.683066666667     0          
C23      C      0.693333333333     0.068666666667     0.595666666667     0          
H14      H      0.700633333333     0.042566666667     0.606666666667     0          
C24      C      0.709333333333     0.094666666667     0.534666666667     0          
H15      H      0.719833333333     0.083266666667     0.483366666667     0          
C25      C      0.713333333333     0.133666666667     0.535666666667     0          
H16      H      0.732133333333     0.157666666667     0.491066666667     0          
C26      C      0.694133333333     0.143066666667     0.590666666667     0          
H17      H      0.698733333333     0.176366666667     0.593766666667     0          
C27      C      0.634933333333     0.123166666667     0.700766666667     0          
H18      H      0.641733333333     0.157966666667     0.691366666667     0          
H19      H      0.599433333333     0.099066666667     0.685366666667     0          
H20      H      0.640933333333     0.118766666667     0.763666666667     0          
C28?     C      0.930933333333     0.229266666667     0.107666666667     0          
C29?     C      0.880133333333     0.198266666667     0.139166666667     0          
C30?     C      0.840933333333     0.189466666667     0.087766666667     0          
H21?     H      0.846333333333     0.205666666667     0.031366666667     0          
C31?     C      0.794333333333     0.157766666667     0.116066666667     0          
H22?     H      0.766133333333     0.151266666667     0.079666666667     0          
H23?     H      0.930433333333     0.243366666667     0.049366666667     0          
H24?     H      0.949933333333     0.257066666667     0.150266666667     0          
H25?     H      0.947433333333     0.208666666667     0.102766666667     0          
O5       O      0.666663333333     0.333336666667     0.691566666667     0          
Zr1      Zr     0.681653333333     0.406096666667     0.737696666667     0          
O1       O      0.745613333333     0.482736666667     0.772066666667     0          
O2       O      0.783703333333     0.473256666667     0.895536666667     0          
O3       O      0.940543333333     0.903296666667     0.289866666667     0          
O4       O      0.025663333333     0.933896666667     0.287166666667     0          
O6       O      0.610023333333     0.348356666667     0.786266666667     0          
C1       C      0.778763333333     0.499426666667     0.834766666667     0          
C2       C      0.815133333333     0.555466666667     0.836266666667     0          
C3       C      0.811133333333     0.586266666667     0.773966666667     0          
H1       H      0.785733333333     0.571666666667     0.728966666667     0          
C4       C      0.843533333333     0.638366666667     0.775566666667     0          
H2       H      0.840033333333     0.659166666667     0.732066666667     0          
C5       C      0.881033333333     0.660266666667     0.840366666667     0          
C6       C      0.885133333333     0.629066666667     0.903666666667     0          
H3       H      0.910633333333     0.643366666667     0.948466666667     0          
C7       C      0.851833333333     0.576866666667     0.901466666667     0          
H4       H      0.854433333333     0.555766666667     0.945466666667     0          
C8       C      0.914533333333     0.716666666667     0.844366666667     0          
C9       C      0.934133333333     0.745166666667     0.766666666667     0          
H5       H      0.927433333333     0.728666666667     0.710366666667     0          
C10      C      0.963433333333     0.797766666667     0.771466666667     0          
H6       H      0.977033333333     0.817066666667     0.718366666667     0          
C11      C      0.973033333333     0.822366666667     0.852866666667     0          
H7       H      0.993033333333     0.858366666667     0.855266666667     0          
C12      C      0.953533333333     0.794366666667     0.932266666667     0          
C13      C      0.924433333333     0.741766666667     0.925966666667     0          
H8       H      0.910833333333     0.722266666667     0.978966666667     0          
C14      C      0.961433333333     0.820866666667     0.018966666667     0          
C15      C      0.005833333333     0.865166666667     0.036366666667     0          
H9       H      0.032533333333     0.877866666667     0.993466666667     0          
C16      C      0.012833333333     0.892166666667     0.115066666667     0          
H10      H      0.044233333333     0.922366666667     0.126066666667     0          
C17      C      0.974583333333     0.875316666667     0.176766666667     0          
C18      C      0.930283333333     0.830096666667     0.162066666667     0          
H11      H      0.903833333333     0.817666666667     0.205166666667     0          
C19      C      0.924233333333     0.802606666667     0.084366666667     0          
H12      H      0.894133333333     0.770766666667     0.076066666667     0          
C20      C      0.980733333333     0.906426666667     0.258166666667     0          
C21      C      0.886333333333     0.555866666667     0.642666666667     0          
C22      C      0.924233333333     0.592566666667     0.643666666667     0          
H13      H      0.950333333333     0.596266666667     0.683066666667     0          
C23      C      0.931333333333     0.624666666667     0.595666666667     0          
H14      H      0.957433333333     0.658066666667     0.606666666667     0          
C24      C      0.905333333333     0.614666666667     0.534666666667     0          
H15      H      0.916733333333     0.636566666667     0.483366666667     0          
C25      C      0.866333333333     0.579666666667     0.535666666667     0          
H16      H      0.842333333333     0.574466666667     0.491066666667     0          
C26      C      0.856933333333     0.551066666667     0.590666666667     0          
H17      H      0.823633333333     0.522366666667     0.593766666667     0          
C27      C      0.876833333333     0.511766666667     0.700766666667     0          
H18      H      0.842033333333     0.483766666667     0.691366666667     0          
H19      H      0.900933333333     0.500366666667     0.685366666667     0          
H20      H      0.881233333333     0.522166666667     0.763666666667     0          
C28?     C      0.770733333333     0.701666666667     0.107666666667     0          
C29?     C      0.801733333333     0.681866666667     0.139166666667     0          
C30?     C      0.810533333333     0.651466666667     0.087766666667     0          
H21?     H      0.794333333333     0.640666666667     0.031366666667     0          
C31?     C      0.842233333333     0.636566666667     0.116066666667     0          
H22?     H      0.848733333333     0.614866666667     0.079666666667     0          
H23?     H      0.756633333333     0.687066666667     0.049366666667     0          
H24?     H      0.742933333333     0.692866666667     0.150266666667     0          
H25?     H      0.791333333333     0.738766666667     0.102766666667     0          
Zr1      Zr     0.593903333333     0.275556666667     0.737696666667     0          
O1       O      0.517263333333     0.262876666667     0.772066666667     0          
O2       O      0.526743333333     0.310446666667     0.895536666667     0          
O3       O      0.096703333333     0.037246666667     0.289866666667     0          
O4       O      0.066103333333     0.091766666667     0.287166666667     0          
O6       O      0.651643333333     0.261666666667     0.786266666667     0          
C1       C      0.500573333333     0.279336666667     0.834766666667     0          
C2       C      0.444533333333     0.259666666667     0.836266666667     0          
C3       C      0.413733333333     0.224866666667     0.773966666667     0          
H1       H      0.428333333333     0.214066666667     0.728966666667     0          
C4       C      0.361633333333     0.205166666667     0.775566666667     0          
H2       H      0.340833333333     0.180866666667     0.732066666667     0          
C5       C      0.339733333333     0.220766666667     0.840366666667     0          
C6       C      0.370933333333     0.256066666667     0.903666666667     0          
H3       H      0.356633333333     0.267266666667     0.948466666667     0          
C7       C      0.423133333333     0.274966666667     0.901466666667     0          
H4       H      0.444233333333     0.298666666667     0.945466666667     0          
C8       C      0.283333333333     0.197866666667     0.844366666667     0          
C9       C      0.254833333333     0.188966666667     0.766666666667     0          
H5       H      0.271333333333     0.198766666667     0.710366666667     0          
C10      C      0.202233333333     0.165666666667     0.771466666667     0          
H6       H      0.182933333333     0.159966666667     0.718366666667     0          
C11      C      0.177633333333     0.150666666667     0.852866666667     0          
H7       H      0.141633333333     0.134666666667     0.855266666667     0          
C12      C      0.205633333333     0.159166666667     0.932266666667     0          
C13      C      0.258233333333     0.182666666667     0.925966666667     0          
H8       H      0.277733333333     0.188566666667     0.978966666667     0          
C14      C      0.179133333333     0.140566666667     0.018966666667     0          
C15      C      0.134833333333     0.140666666667     0.036366666667     0          
H9       H      0.122133333333     0.154666666667     0.993466666667     0          
C16      C      0.107833333333     0.120666666667     0.115066666667     0          
H10      H      0.077633333333     0.121866666667     0.126066666667     0          
C17      C      0.124683333333     0.099266666667     0.176766666667     0          
C18      C      0.169903333333     0.100186666667     0.162066666667     0          
H11      H      0.182333333333     0.086166666667     0.205166666667     0          
C19      C      0.197393333333     0.121626666667     0.084366666667     0          
H12      H      0.229233333333     0.123366666667     0.076066666667     0          
C20      C      0.093573333333     0.074306666667     0.258166666667     0          
C21      C      0.444133333333     0.330466666667     0.642666666667     0          
C22      C      0.407433333333     0.331666666667     0.643666666667     0          
H13      H      0.403733333333     0.354066666667     0.683066666667     0          
C23      C      0.375333333333     0.306666666667     0.595666666667     0          
H14      H      0.341933333333     0.299366666667     0.606666666667     0          
C24      C      0.385333333333     0.290666666667     0.534666666667     0          
H15      H      0.363433333333     0.280166666667     0.483366666667     0          
C25      C      0.420333333333     0.286666666667     0.535666666667     0          
H16      H      0.425533333333     0.267866666667     0.491066666667     0          
C26      C      0.448933333333     0.305866666667     0.590666666667     0          
H17      H      0.477633333333     0.301266666667     0.593766666667     0          
C27      C      0.488233333333     0.365066666667     0.700766666667     0          
H18      H      0.516233333333     0.358266666667     0.691366666667     0          
H19      H      0.499633333333     0.400566666667     0.685366666667     0          
H20      H      0.477833333333     0.359066666667     0.763666666667     0          
C28?     C      0.298333333333     0.069066666667     0.107666666667     0          
C29?     C      0.318133333333     0.119866666667     0.139166666667     0          
C30?     C      0.348533333333     0.159066666667     0.087766666667     0          
H21?     H      0.359333333333     0.153666666667     0.031366666667     0          
C31?     C      0.363433333333     0.205666666667     0.116066666667     0          
H22?     H      0.385133333333     0.233866666667     0.079666666667     0          
H23?     H      0.312933333333     0.069566666667     0.049366666667     0          
H24?     H      0.307133333333     0.050066666667     0.150266666667     0          
H25?     H      0.261233333333     0.052566666667     0.102766666667     0          
Zr1      Zr     0.942223333333     0.014986666667     0.595636666667     0          
O1       O      0.929543333333     0.078946666667     0.561266666667     0          
O2       O      0.977113333333     0.117036666667     0.437796666667     0          
O3       O      0.703913333333     0.273876666667     0.043466666667     0          
O4       O      0.758433333333     0.358996666667     0.046166666667     0          
O6       O      0.928333333333     0.943356666667     0.547066666667     0          
C1       C      0.946003333333     0.112096666667     0.498566666667     0          
C2       C      0.926333333333     0.148466666667     0.497066666667     0          
C3       C      0.891533333333     0.144466666667     0.559366666667     0          
H1       H      0.880733333333     0.119066666667     0.604366666667     0          
C4       C      0.871833333333     0.176866666667     0.557766666667     0          
H2       H      0.847533333333     0.173366666667     0.601266666667     0          
C5       C      0.887433333333     0.214366666667     0.492966666667     0          
C6       C      0.922733333333     0.218466666667     0.429666666667     0          
H3       H      0.933933333333     0.243966666667     0.384866666667     0          
C7       C      0.941633333333     0.185166666667     0.431866666667     0          
H4       H      0.965333333333     0.187766666667     0.387866666667     0          
C8       C      0.864533333333     0.247866666667     0.488966666667     0          
C9       C      0.855633333333     0.267466666667     0.566666666667     0          
H5       H      0.865433333333     0.260766666667     0.622966666667     0          
C10      C      0.832333333333     0.296766666667     0.561866666667     0          
H6       H      0.826633333333     0.310366666667     0.614966666667     0          
C11      C      0.817333333333     0.306366666667     0.480466666667     0          
H7       H      0.801333333333     0.326366666667     0.478066666667     0          
C12      C      0.825833333333     0.286866666667     0.401066666667     0          
C13      C      0.849333333333     0.257766666667     0.407366666667     0          
H8       H      0.855233333333     0.244166666667     0.354366666667     0          
C14      C      0.807233333333     0.294766666667     0.314366666667     0          
C15      C      0.807333333333     0.339166666667     0.296966666667     0          
H9       H      0.821333333333     0.365866666667     0.339866666667     0          
C16      C      0.787333333333     0.346166666667     0.218266666667     0          
H10      H      0.788533333333     0.377566666667     0.207266666667     0          
C17      C      0.765933333333     0.307916666667     0.156566666667     0          
C18      C      0.766853333333     0.263616666667     0.171266666667     0          
H11      H      0.752833333333     0.237166666667     0.128166666667     0          
C19      C      0.788293333333     0.257566666667     0.248966666667     0          
H12      H      0.790033333333     0.227466666667     0.257266666667     0          
C20      C      0.740973333333     0.314066666667     0.075166666667     0          
C21      C      0.997133333333     0.219666666667     0.690666666667     0          
C22      C      0.998333333333     0.257566666667     0.689666666667     0          
H13      H      0.020733333333     0.283666666667     0.650266666667     0          
C23      C      0.973333333333     0.264666666667     0.737666666667     0          
H14      H      0.966033333333     0.290766666667     0.726666666667     0          
C24      C      0.957333333333     0.238666666667     0.798666666667     0          
H15      H      0.946833333333     0.250066666667     0.849966666667     0          
C25      C      0.953333333333     0.199666666667     0.797666666667     0          
H16      H      0.934533333333     0.175666666667     0.842266666667     0          
C26      C      0.972533333333     0.190266666667     0.742666666667     0          
H17      H      0.967933333333     0.156966666667     0.739566666667     0          
C27      C      0.031733333333     0.210166666667     0.632566666667     0          
H18      H      0.024933333333     0.175366666667     0.641966666667     0          
H19      H      0.067233333333     0.234266666667     0.647966666667     0          
H20      H      0.025733333333     0.214566666667     0.569666666667     0          
C28?     C      0.735733333333     0.104066666667     0.225666666667     0          
C29?     C      0.786533333333     0.135066666667     0.194166666667     0          
C30?     C      0.825733333333     0.143866666667     0.245566666667     0          
H21?     H      0.820333333333     0.127666666667     0.301966666667     0          
C31?     C      0.872333333333     0.175566666667     0.217266666667     0          
H22?     H      0.900533333333     0.182066666667     0.253666666667     0          
H23?     H      0.736233333333     0.089966666667     0.283966666667     0          
H24?     H      0.716733333333     0.076266666667     0.183066666667     0          
H25?     H      0.719233333333     0.124666666667     0.230566666667     0          
O5       O      0.000003333333     0.999996666667     0.641766666667     0          
Zr1      Zr     0.985013333333     0.927236666667     0.595636666667     0          
O1       O      0.921053333333     0.850596666667     0.561266666667     0          
O2       O      0.882963333333     0.860076666667     0.437796666667     0          
O3       O      0.726123333333     0.430036666667     0.043466666667     0          
O4       O      0.641003333333     0.399436666667     0.046166666667     0          
O6       O      0.056643333333     0.984976666667     0.547066666667     0          
C1       C      0.887903333333     0.833906666667     0.498566666667     0          
C2       C      0.851533333333     0.777866666667     0.497066666667     0          
C3       C      0.855533333333     0.747066666667     0.559366666667     0          
H1       H      0.880933333333     0.761666666667     0.604366666667     0          
C4       C      0.823133333333     0.694966666667     0.557766666667     0          
H2       H      0.826633333333     0.674166666667     0.601266666667     0          
C5       C      0.785633333333     0.673066666667     0.492966666667     0          
C6       C      0.781533333333     0.704266666667     0.429666666667     0          
H3       H      0.756033333333     0.689966666667     0.384866666667     0          
C7       C      0.814833333333     0.756466666667     0.431866666667     0          
H4       H      0.812233333333     0.777566666667     0.387866666667     0          
C8       C      0.752133333333     0.616666666667     0.488966666667     0          
C9       C      0.732533333333     0.588166666667     0.566666666667     0          
H5       H      0.739233333333     0.604666666667     0.622966666667     0          
C10      C      0.703233333333     0.535566666667     0.561866666667     0          
H6       H      0.689633333333     0.516266666667     0.614966666667     0          
C11      C      0.693633333333     0.510966666667     0.480466666667     0          
H7       H      0.673633333333     0.474966666667     0.478066666667     0          
C12      C      0.713133333333     0.538966666667     0.401066666667     0          
C13      C      0.742233333333     0.591566666667     0.407366666667     0          
H8       H      0.755833333333     0.611066666667     0.354366666667     0          
C14      C      0.705233333333     0.512466666667     0.314366666667     0          
C15      C      0.660833333333     0.468166666667     0.296966666667     0          
H9       H      0.634133333333     0.455466666667     0.339866666667     0          
C16      C      0.653833333333     0.441166666667     0.218266666667     0          
H10      H      0.622433333333     0.410966666667     0.207266666667     0          
C17      C      0.692083333333     0.458016666667     0.156566666667     0          
C18      C      0.736383333333     0.503236666667     0.171266666667     0          
H11      H      0.762833333333     0.515666666667     0.128166666667     0          
C19      C      0.742433333333     0.530726666667     0.248966666667     0          
H12      H      0.772533333333     0.562566666667     0.257266666667     0          
C20      C      0.685933333333     0.426906666667     0.075166666667     0          
C21      C      0.780333333333     0.777466666667     0.690666666667     0          
C22      C      0.742433333333     0.740766666667     0.689666666667     0          
H13      H      0.716333333333     0.737066666667     0.650266666667     0          
C23      C      0.735333333333     0.708666666667     0.737666666667     0          
H14      H      0.709233333333     0.675266666667     0.726666666667     0          
C24      C      0.761333333333     0.718666666667     0.798666666667     0          
H15      H      0.749933333333     0.696766666667     0.849966666667     0          
C25      C      0.800333333333     0.753666666667     0.797666666667     0          
H16      H      0.824333333333     0.758866666667     0.842266666667     0          
C26      C      0.809733333333     0.782266666667     0.742666666667     0          
H17      H      0.843033333333     0.810966666667     0.739566666667     0          
C27      C      0.789833333333     0.821566666667     0.632566666667     0          
H18      H      0.824633333333     0.849566666667     0.641966666667     0          
H19      H      0.765733333333     0.832966666667     0.647966666667     0          
H20      H      0.785433333333     0.811166666667     0.569666666667     0          
C28?     C      0.895933333333     0.631666666667     0.225666666667     0          
C29?     C      0.864933333333     0.651466666667     0.194166666667     0          
C30?     C      0.856133333333     0.681866666667     0.245566666667     0          
H21?     H      0.872333333333     0.692666666667     0.301966666667     0          
C31?     C      0.824433333333     0.696766666667     0.217266666667     0          
H22?     H      0.817933333333     0.718466666667     0.253666666667     0          
H23?     H      0.910033333333     0.646266666667     0.283966666667     0          
H24?     H      0.923733333333     0.640466666667     0.183066666667     0          
H25?     H      0.875333333333     0.594566666667     0.230566666667     0          
Zr1      Zr     0.072763333333     0.057776666667     0.595636666667     0          
O1       O      0.149403333333     0.070456666667     0.561266666667     0          
O2       O      0.139923333333     0.022886666667     0.437796666667     0          
O3       O      0.569963333333     0.296086666667     0.043466666667     0          
O4       O      0.600563333333     0.241566666667     0.046166666667     0          
O6       O      0.015023333333     0.071666666667     0.547066666667     0          
C1       C      0.166093333333     0.053996666667     0.498566666667     0          
C2       C      0.222133333333     0.073666666667     0.497066666667     0          
C3       C      0.252933333333     0.108466666667     0.559366666667     0          
H1       H      0.238333333333     0.119266666667     0.604366666667     0          
C4       C      0.305033333333     0.128166666667     0.557766666667     0          
H2       H      0.325833333333     0.152466666667     0.601266666667     0          
C5       C      0.326933333333     0.112566666667     0.492966666667     0          
C6       C      0.295733333333     0.077266666667     0.429666666667     0          
H3       H      0.310033333333     0.066066666667     0.384866666667     0          
C7       C      0.243533333333     0.058366666667     0.431866666667     0          
H4       H      0.222433333333     0.034666666667     0.387866666667     0          
C8       C      0.383333333333     0.135466666667     0.488966666667     0          
C9       C      0.411833333333     0.144366666667     0.566666666667     0          
H5       H      0.395333333333     0.134566666667     0.622966666667     0          
C10      C      0.464433333333     0.167666666667     0.561866666667     0          
H6       H      0.483733333333     0.173366666667     0.614966666667     0          
C11      C      0.489033333333     0.182666666667     0.480466666667     0          
H7       H      0.525033333333     0.198666666667     0.478066666667     0          
C12      C      0.461033333333     0.174166666667     0.401066666667     0          
C13      C      0.408433333333     0.150666666667     0.407366666667     0          
H8       H      0.388933333333     0.144766666667     0.354366666667     0          
C14      C      0.487533333333     0.192766666667     0.314366666667     0          
C15      C      0.531833333333     0.192666666667     0.296966666667     0          
H9       H      0.544533333333     0.178666666667     0.339866666667     0          
C16      C      0.558833333333     0.212666666667     0.218266666667     0          
H10      H      0.589033333333     0.211466666667     0.207266666667     0          
C17      C      0.541983333333     0.234066666667     0.156566666667     0          
C18      C      0.496763333333     0.233146666667     0.171266666667     0          
H11      H      0.484333333333     0.247166666667     0.128166666667     0          
C19      C      0.469273333333     0.211706666667     0.248966666667     0          
H12      H      0.437433333333     0.209966666667     0.257266666667     0          
C20      C      0.573093333333     0.259026666667     0.075166666667     0          
C21      C      0.222533333333     0.002866666667     0.690666666667     0          
C22      C      0.259233333333     0.001666666667     0.689666666667     0          
H13      H      0.262933333333     0.979266666667     0.650266666667     0          
C23      C      0.291333333333     0.026666666667     0.737666666667     0          
H14      H      0.324733333333     0.033966666667     0.726666666667     0          
C24      C      0.281333333333     0.042666666667     0.798666666667     0          
H15      H      0.303233333333     0.053166666667     0.849966666667     0          
C25      C      0.246333333333     0.046666666667     0.797666666667     0          
H16      H      0.241133333333     0.065466666667     0.842266666667     0          
C26      C      0.217733333333     0.027466666667     0.742666666667     0          
H17      H      0.189033333333     0.032066666667     0.739566666667     0          
C27      C      0.178433333333     0.968266666667     0.632566666667     0          
H18      H      0.150433333333     0.975066666667     0.641966666667     0          
H19      H      0.167033333333     0.932766666667     0.647966666667     0          
H20      H      0.188833333333     0.974266666667     0.569666666667     0          
C28?     C      0.368333333333     0.264266666667     0.225666666667     0          
C29?     C      0.348533333333     0.213466666667     0.194166666667     0          
C30?     C      0.318133333333     0.174266666667     0.245566666667     0          
H21?     H      0.307333333333     0.179666666667     0.301966666667     0          
C31?     C      0.303233333333     0.127666666667     0.217266666667     0          
H22?     H      0.281533333333     0.099466666667     0.253666666667     0          
H23?     H      0.353733333333     0.263766666667     0.283966666667     0          
H24?     H      0.359533333333     0.283266666667     0.183066666667     0          
H25?     H      0.405433333333     0.280766666667     0.230566666667     0          


