data_BIPLAQ

_audit_creation_method RASPA-1.0
_audit_creation_date 2020-4-3
_audit_author_name 'Rocio Bueno-Perez'

_cell_length_a    38.452
_cell_length_b    38.452
_cell_length_c    38.452
_cell_angle_alpha 90
_cell_angle_beta  90
_cell_angle_gamma 90
_cell_volume      56853.4

_symmetry_cell_setting          cubic
_symmetry_space_group_name_Hall 'P 1'
_symmetry_space_group_name_H-M  'P 1'
_symmetry_Int_Tables_number     1

_symmetry_equiv_pos_as_xyz 'x,y,z'

loop_
_atom_site_label
_atom_site_type_symbol
_atom_site_fract_x
_atom_site_fract_y
_atom_site_fract_z
_atom_site_charge
O1       O      0.722590000000     0.671800000000     0.813970000000     0          
C3       C      0.720500000000     0.621100000000     0.864040000000     0          
H1       H      0.700400000000     0.625070000000     0.850170000000     0          
C4       C      0.720300000000     0.595800000000     0.888940000000     0          
H2       H      0.700160000000     0.581970000000     0.892290000000     0          
C7       C      0.748700000000     0.573180000000     0.971620000000     0          
C8       C      0.747100000000     0.609030000000     0.982510000000     0          
H3       H      0.746220000000     0.628860000000     0.967790000000     0          
Zr1      Zr     0.707170000000     0.707170000000     0.772080000000     0          
O2       O      0.671700000000     0.671700000000     0.753200000000     0          
O4       O      0.741600000000     0.741600000000     0.806000000000     0          
Cu1      Cu     0.750000000000     0.500000000000     0.000000000000     0          
O3       O      0.717360000000     0.717360000000     0.717360000000     0          
N1       N      0.749800000000     0.551870000000     0.000000000000     0          
C1       C      0.750000000000     0.668130000000     0.831870000000     0          
C2       C      0.750000000000     0.640770000000     0.859230000000     0          
C5       C      0.750000000000     0.590280000000     0.909720000000     0          
C6       C      0.750000000000     0.563100000000     0.936900000000     0          
O1       O      0.328200000000     0.722590000000     0.813970000000     0          
C3       C      0.378900000000     0.720500000000     0.864040000000     0          
H1       H      0.374930000000     0.700400000000     0.850170000000     0          
C4       C      0.404200000000     0.720300000000     0.888940000000     0          
H2       H      0.418030000000     0.700160000000     0.892290000000     0          
C7       C      0.426820000000     0.748700000000     0.971620000000     0          
C8       C      0.390970000000     0.747100000000     0.982510000000     0          
H3       H      0.371140000000     0.746220000000     0.967790000000     0          
Zr1      Zr     0.292830000000     0.707170000000     0.772080000000     0          
O2       O      0.328300000000     0.671700000000     0.753200000000     0          
O4       O      0.258400000000     0.741600000000     0.806000000000     0          
Cu1      Cu     0.500000000000     0.750000000000     0.000000000000     0          
O3       O      0.282640000000     0.717360000000     0.717360000000     0          
N1       N      0.448130000000     0.749800000000     0.000000000000     0          
C1       C      0.331870000000     0.750000000000     0.831870000000     0          
C2       C      0.359230000000     0.750000000000     0.859230000000     0          
C5       C      0.409720000000     0.750000000000     0.909720000000     0          
C6       C      0.436900000000     0.750000000000     0.936900000000     0          
O1       O      0.277410000000     0.328200000000     0.813970000000     0          
C3       C      0.279500000000     0.378900000000     0.864040000000     0          
H1       H      0.299600000000     0.374930000000     0.850170000000     0          
C4       C      0.279700000000     0.404200000000     0.888940000000     0          
H2       H      0.299840000000     0.418030000000     0.892290000000     0          
C7       C      0.251300000000     0.426820000000     0.971620000000     0          
C8       C      0.252900000000     0.390970000000     0.982510000000     0          
H3       H      0.253780000000     0.371140000000     0.967790000000     0          
Zr1      Zr     0.292830000000     0.292830000000     0.772080000000     0          
O2       O      0.328300000000     0.328300000000     0.753200000000     0          
O4       O      0.258400000000     0.258400000000     0.806000000000     0          
Cu1      Cu     0.250000000000     0.500000000000     0.000000000000     0          
O3       O      0.282640000000     0.282640000000     0.717360000000     0          
N1       N      0.250200000000     0.448130000000     0.000000000000     0          
C1       C      0.250000000000     0.331870000000     0.831870000000     0          
C2       C      0.250000000000     0.359230000000     0.859230000000     0          
C5       C      0.250000000000     0.409720000000     0.909720000000     0          
C6       C      0.250000000000     0.436900000000     0.936900000000     0          
O1       O      0.671800000000     0.277410000000     0.813970000000     0          
C3       C      0.621100000000     0.279500000000     0.864040000000     0          
H1       H      0.625070000000     0.299600000000     0.850170000000     0          
C4       C      0.595800000000     0.279700000000     0.888940000000     0          
H2       H      0.581970000000     0.299840000000     0.892290000000     0          
C7       C      0.573180000000     0.251300000000     0.971620000000     0          
C8       C      0.609030000000     0.252900000000     0.982510000000     0          
H3       H      0.628860000000     0.253780000000     0.967790000000     0          
Zr1      Zr     0.707170000000     0.292830000000     0.772080000000     0          
O2       O      0.671700000000     0.328300000000     0.753200000000     0          
O4       O      0.741600000000     0.258400000000     0.806000000000     0          
Cu1      Cu     0.500000000000     0.250000000000     0.000000000000     0          
O3       O      0.717360000000     0.282640000000     0.717360000000     0          
N1       N      0.551870000000     0.250200000000     0.000000000000     0          
C1       C      0.668130000000     0.250000000000     0.831870000000     0          
C2       C      0.640770000000     0.250000000000     0.859230000000     0          
C5       C      0.590280000000     0.250000000000     0.909720000000     0          
C6       C      0.563100000000     0.250000000000     0.936900000000     0          
O1       O      0.722590000000     0.328200000000     0.186030000000     0          
C3       C      0.720500000000     0.378900000000     0.135960000000     0          
H1       H      0.700400000000     0.374930000000     0.149830000000     0          
C4       C      0.720300000000     0.404200000000     0.111060000000     0          
H2       H      0.700160000000     0.418030000000     0.107710000000     0          
C7       C      0.748700000000     0.426820000000     0.028380000000     0          
C8       C      0.747100000000     0.390970000000     0.017490000000     0          
H3       H      0.746220000000     0.371140000000     0.032210000000     0          
Zr1      Zr     0.707170000000     0.292830000000     0.227920000000     0          
O2       O      0.671700000000     0.328300000000     0.246800000000     0          
O4       O      0.741600000000     0.258400000000     0.194000000000     0          
O3       O      0.717360000000     0.282640000000     0.282640000000     0          
N1       N      0.749800000000     0.448130000000     0.000000000000     0          
C1       C      0.750000000000     0.331870000000     0.168130000000     0          
C2       C      0.750000000000     0.359230000000     0.140770000000     0          
C5       C      0.750000000000     0.409720000000     0.090280000000     0          
C6       C      0.750000000000     0.436900000000     0.063100000000     0          
O1       O      0.671800000000     0.722590000000     0.186030000000     0          
C3       C      0.621100000000     0.720500000000     0.135960000000     0          
H1       H      0.625070000000     0.700400000000     0.149830000000     0          
C4       C      0.595800000000     0.720300000000     0.111060000000     0          
H2       H      0.581970000000     0.700160000000     0.107710000000     0          
C7       C      0.573180000000     0.748700000000     0.028380000000     0          
C8       C      0.609030000000     0.747100000000     0.017490000000     0          
H3       H      0.628860000000     0.746220000000     0.032210000000     0          
Zr1      Zr     0.707170000000     0.707170000000     0.227920000000     0          
O2       O      0.671700000000     0.671700000000     0.246800000000     0          
O4       O      0.741600000000     0.741600000000     0.194000000000     0          
O3       O      0.717360000000     0.717360000000     0.282640000000     0          
N1       N      0.551870000000     0.749800000000     0.000000000000     0          
C1       C      0.668130000000     0.750000000000     0.168130000000     0          
C2       C      0.640770000000     0.750000000000     0.140770000000     0          
C5       C      0.590280000000     0.750000000000     0.090280000000     0          
C6       C      0.563100000000     0.750000000000     0.063100000000     0          
O1       O      0.277410000000     0.671800000000     0.186030000000     0          
C3       C      0.279500000000     0.621100000000     0.135960000000     0          
H1       H      0.299600000000     0.625070000000     0.149830000000     0          
C4       C      0.279700000000     0.595800000000     0.111060000000     0          
H2       H      0.299840000000     0.581970000000     0.107710000000     0          
C7       C      0.251300000000     0.573180000000     0.028380000000     0          
C8       C      0.252900000000     0.609030000000     0.017490000000     0          
H3       H      0.253780000000     0.628860000000     0.032210000000     0          
Zr1      Zr     0.292830000000     0.707170000000     0.227920000000     0          
O2       O      0.328300000000     0.671700000000     0.246800000000     0          
O4       O      0.258400000000     0.741600000000     0.194000000000     0          
O3       O      0.282640000000     0.717360000000     0.282640000000     0          
N1       N      0.250200000000     0.551870000000     0.000000000000     0          
C1       C      0.250000000000     0.668130000000     0.168130000000     0          
C2       C      0.250000000000     0.640770000000     0.140770000000     0          
C5       C      0.250000000000     0.590280000000     0.090280000000     0          
C6       C      0.250000000000     0.563100000000     0.063100000000     0          
O1       O      0.328200000000     0.277410000000     0.186030000000     0          
C3       C      0.378900000000     0.279500000000     0.135960000000     0          
H1       H      0.374930000000     0.299600000000     0.149830000000     0          
C4       C      0.404200000000     0.279700000000     0.111060000000     0          
H2       H      0.418030000000     0.299840000000     0.107710000000     0          
C7       C      0.426820000000     0.251300000000     0.028380000000     0          
C8       C      0.390970000000     0.252900000000     0.017490000000     0          
H3       H      0.371140000000     0.253780000000     0.032210000000     0          
Zr1      Zr     0.292830000000     0.292830000000     0.227920000000     0          
O2       O      0.328300000000     0.328300000000     0.246800000000     0          
O4       O      0.258400000000     0.258400000000     0.194000000000     0          
O3       O      0.282640000000     0.282640000000     0.282640000000     0          
N1       N      0.448130000000     0.250200000000     0.000000000000     0          
C1       C      0.331870000000     0.250000000000     0.168130000000     0          
C2       C      0.359230000000     0.250000000000     0.140770000000     0          
C5       C      0.409720000000     0.250000000000     0.090280000000     0          
C6       C      0.436900000000     0.250000000000     0.063100000000     0          
O1       O      0.813970000000     0.722590000000     0.671800000000     0          
C3       C      0.864040000000     0.720500000000     0.621100000000     0          
H1       H      0.850170000000     0.700400000000     0.625070000000     0          
C4       C      0.888940000000     0.720300000000     0.595800000000     0          
H2       H      0.892290000000     0.700160000000     0.581970000000     0          
C7       C      0.971620000000     0.748700000000     0.573180000000     0          
C8       C      0.982510000000     0.747100000000     0.609030000000     0          
H3       H      0.967790000000     0.746220000000     0.628860000000     0          
Zr1      Zr     0.772080000000     0.707170000000     0.707170000000     0          
O2       O      0.753200000000     0.671700000000     0.671700000000     0          
O4       O      0.806000000000     0.741600000000     0.741600000000     0          
Cu1      Cu     0.000000000000     0.750000000000     0.500000000000     0          
N1       N      0.000000000000     0.749800000000     0.551870000000     0          
C1       C      0.831870000000     0.750000000000     0.668130000000     0          
C2       C      0.859230000000     0.750000000000     0.640770000000     0          
C5       C      0.909720000000     0.750000000000     0.590280000000     0          
C6       C      0.936900000000     0.750000000000     0.563100000000     0          
O1       O      0.277410000000     0.813970000000     0.671800000000     0          
C3       C      0.279500000000     0.864040000000     0.621100000000     0          
H1       H      0.299600000000     0.850170000000     0.625070000000     0          
C4       C      0.279700000000     0.888940000000     0.595800000000     0          
H2       H      0.299840000000     0.892290000000     0.581970000000     0          
C7       C      0.251300000000     0.971620000000     0.573180000000     0          
C8       C      0.252900000000     0.982510000000     0.609030000000     0          
H3       H      0.253780000000     0.967790000000     0.628860000000     0          
Zr1      Zr     0.292830000000     0.772080000000     0.707170000000     0          
O2       O      0.328300000000     0.753200000000     0.671700000000     0          
O4       O      0.258400000000     0.806000000000     0.741600000000     0          
Cu1      Cu     0.250000000000     0.000000000000     0.500000000000     0          
N1       N      0.250200000000     0.000000000000     0.551870000000     0          
C1       C      0.250000000000     0.831870000000     0.668130000000     0          
C2       C      0.250000000000     0.859230000000     0.640770000000     0          
C5       C      0.250000000000     0.909720000000     0.590280000000     0          
C6       C      0.250000000000     0.936900000000     0.563100000000     0          
O1       O      0.186030000000     0.277410000000     0.671800000000     0          
C3       C      0.135960000000     0.279500000000     0.621100000000     0          
H1       H      0.149830000000     0.299600000000     0.625070000000     0          
C4       C      0.111060000000     0.279700000000     0.595800000000     0          
H2       H      0.107710000000     0.299840000000     0.581970000000     0          
C7       C      0.028380000000     0.251300000000     0.573180000000     0          
C8       C      0.017490000000     0.252900000000     0.609030000000     0          
H3       H      0.032210000000     0.253780000000     0.628860000000     0          
Zr1      Zr     0.227920000000     0.292830000000     0.707170000000     0          
O2       O      0.246800000000     0.328300000000     0.671700000000     0          
O4       O      0.194000000000     0.258400000000     0.741600000000     0          
Cu1      Cu     0.000000000000     0.250000000000     0.500000000000     0          
N1       N      0.000000000000     0.250200000000     0.551870000000     0          
C1       C      0.168130000000     0.250000000000     0.668130000000     0          
C2       C      0.140770000000     0.250000000000     0.640770000000     0          
C5       C      0.090280000000     0.250000000000     0.590280000000     0          
C6       C      0.063100000000     0.250000000000     0.563100000000     0          
O1       O      0.722590000000     0.186030000000     0.671800000000     0          
C3       C      0.720500000000     0.135960000000     0.621100000000     0          
H1       H      0.700400000000     0.149830000000     0.625070000000     0          
C4       C      0.720300000000     0.111060000000     0.595800000000     0          
H2       H      0.700160000000     0.107710000000     0.581970000000     0          
C7       C      0.748700000000     0.028380000000     0.573180000000     0          
C8       C      0.747100000000     0.017490000000     0.609030000000     0          
H3       H      0.746220000000     0.032210000000     0.628860000000     0          
Zr1      Zr     0.707170000000     0.227920000000     0.707170000000     0          
O2       O      0.671700000000     0.246800000000     0.671700000000     0          
O4       O      0.741600000000     0.194000000000     0.741600000000     0          
Cu1      Cu     0.750000000000     0.000000000000     0.500000000000     0          
N1       N      0.749800000000     0.000000000000     0.551870000000     0          
C1       C      0.750000000000     0.168130000000     0.668130000000     0          
C2       C      0.750000000000     0.140770000000     0.640770000000     0          
C5       C      0.750000000000     0.090280000000     0.590280000000     0          
C6       C      0.750000000000     0.063100000000     0.563100000000     0          
O1       O      0.813970000000     0.277410000000     0.328200000000     0          
C3       C      0.864040000000     0.279500000000     0.378900000000     0          
H1       H      0.850170000000     0.299600000000     0.374930000000     0          
C4       C      0.888940000000     0.279700000000     0.404200000000     0          
H2       H      0.892290000000     0.299840000000     0.418030000000     0          
C7       C      0.971620000000     0.251300000000     0.426820000000     0          
C8       C      0.982510000000     0.252900000000     0.390970000000     0          
H3       H      0.967790000000     0.253780000000     0.371140000000     0          
Zr1      Zr     0.772080000000     0.292830000000     0.292830000000     0          
O2       O      0.753200000000     0.328300000000     0.328300000000     0          
O4       O      0.806000000000     0.258400000000     0.258400000000     0          
N1       N      0.000000000000     0.250200000000     0.448130000000     0          
C1       C      0.831870000000     0.250000000000     0.331870000000     0          
C2       C      0.859230000000     0.250000000000     0.359230000000     0          
C5       C      0.909720000000     0.250000000000     0.409720000000     0          
C6       C      0.936900000000     0.250000000000     0.436900000000     0          
O1       O      0.722590000000     0.813970000000     0.328200000000     0          
C3       C      0.720500000000     0.864040000000     0.378900000000     0          
H1       H      0.700400000000     0.850170000000     0.374930000000     0          
C4       C      0.720300000000     0.888940000000     0.404200000000     0          
H2       H      0.700160000000     0.892290000000     0.418030000000     0          
C7       C      0.748700000000     0.971620000000     0.426820000000     0          
C8       C      0.747100000000     0.982510000000     0.390970000000     0          
H3       H      0.746220000000     0.967790000000     0.371140000000     0          
Zr1      Zr     0.707170000000     0.772080000000     0.292830000000     0          
O2       O      0.671700000000     0.753200000000     0.328300000000     0          
O4       O      0.741600000000     0.806000000000     0.258400000000     0          
N1       N      0.749800000000     0.000000000000     0.448130000000     0          
C1       C      0.750000000000     0.831870000000     0.331870000000     0          
C2       C      0.750000000000     0.859230000000     0.359230000000     0          
C5       C      0.750000000000     0.909720000000     0.409720000000     0          
C6       C      0.750000000000     0.936900000000     0.436900000000     0          
O1       O      0.186030000000     0.722590000000     0.328200000000     0          
C3       C      0.135960000000     0.720500000000     0.378900000000     0          
H1       H      0.149830000000     0.700400000000     0.374930000000     0          
C4       C      0.111060000000     0.720300000000     0.404200000000     0          
H2       H      0.107710000000     0.700160000000     0.418030000000     0          
C7       C      0.028380000000     0.748700000000     0.426820000000     0          
C8       C      0.017490000000     0.747100000000     0.390970000000     0          
H3       H      0.032210000000     0.746220000000     0.371140000000     0          
Zr1      Zr     0.227920000000     0.707170000000     0.292830000000     0          
O2       O      0.246800000000     0.671700000000     0.328300000000     0          
O4       O      0.194000000000     0.741600000000     0.258400000000     0          
N1       N      0.000000000000     0.749800000000     0.448130000000     0          
C1       C      0.168130000000     0.750000000000     0.331870000000     0          
C2       C      0.140770000000     0.750000000000     0.359230000000     0          
C5       C      0.090280000000     0.750000000000     0.409720000000     0          
C6       C      0.063100000000     0.750000000000     0.436900000000     0          
O1       O      0.277410000000     0.186030000000     0.328200000000     0          
C3       C      0.279500000000     0.135960000000     0.378900000000     0          
H1       H      0.299600000000     0.149830000000     0.374930000000     0          
C4       C      0.279700000000     0.111060000000     0.404200000000     0          
H2       H      0.299840000000     0.107710000000     0.418030000000     0          
C7       C      0.251300000000     0.028380000000     0.426820000000     0          
C8       C      0.252900000000     0.017490000000     0.390970000000     0          
H3       H      0.253780000000     0.032210000000     0.371140000000     0          
Zr1      Zr     0.292830000000     0.227920000000     0.292830000000     0          
O2       O      0.328300000000     0.246800000000     0.328300000000     0          
O4       O      0.258400000000     0.194000000000     0.258400000000     0          
N1       N      0.250200000000     0.000000000000     0.448130000000     0          
C1       C      0.250000000000     0.168130000000     0.331870000000     0          
C2       C      0.250000000000     0.140770000000     0.359230000000     0          
C5       C      0.250000000000     0.090280000000     0.409720000000     0          
C6       C      0.250000000000     0.063100000000     0.436900000000     0          
O1       O      0.671800000000     0.813970000000     0.722590000000     0          
C3       C      0.621100000000     0.864040000000     0.720500000000     0          
H1       H      0.625070000000     0.850170000000     0.700400000000     0          
C4       C      0.595800000000     0.888940000000     0.720300000000     0          
H2       H      0.581970000000     0.892290000000     0.700160000000     0          
C7       C      0.573180000000     0.971620000000     0.748700000000     0          
C8       C      0.609030000000     0.982510000000     0.747100000000     0          
H3       H      0.628860000000     0.967790000000     0.746220000000     0          
Zr1      Zr     0.707170000000     0.772080000000     0.707170000000     0          
O2       O      0.671700000000     0.753200000000     0.671700000000     0          
O4       O      0.741600000000     0.806000000000     0.741600000000     0          
Cu1      Cu     0.500000000000     0.000000000000     0.750000000000     0          
N1       N      0.551870000000     0.000000000000     0.749800000000     0          
C1       C      0.668130000000     0.831870000000     0.750000000000     0          
C2       C      0.640770000000     0.859230000000     0.750000000000     0          
C5       C      0.590280000000     0.909720000000     0.750000000000     0          
C6       C      0.563100000000     0.936900000000     0.750000000000     0          
O1       O      0.671800000000     0.186030000000     0.277410000000     0          
C3       C      0.621100000000     0.135960000000     0.279500000000     0          
H1       H      0.625070000000     0.149830000000     0.299600000000     0          
C4       C      0.595800000000     0.111060000000     0.279700000000     0          
H2       H      0.581970000000     0.107710000000     0.299840000000     0          
C7       C      0.573180000000     0.028380000000     0.251300000000     0          
C8       C      0.609030000000     0.017490000000     0.252900000000     0          
H3       H      0.628860000000     0.032210000000     0.253780000000     0          
Zr1      Zr     0.707170000000     0.227920000000     0.292830000000     0          
O2       O      0.671700000000     0.246800000000     0.328300000000     0          
O4       O      0.741600000000     0.194000000000     0.258400000000     0          
Cu1      Cu     0.500000000000     0.000000000000     0.250000000000     0          
N1       N      0.551870000000     0.000000000000     0.250200000000     0          
C1       C      0.668130000000     0.168130000000     0.250000000000     0          
C2       C      0.640770000000     0.140770000000     0.250000000000     0          
C5       C      0.590280000000     0.090280000000     0.250000000000     0          
C6       C      0.563100000000     0.063100000000     0.250000000000     0          
O1       O      0.813970000000     0.671800000000     0.277410000000     0          
C3       C      0.864040000000     0.621100000000     0.279500000000     0          
H1       H      0.850170000000     0.625070000000     0.299600000000     0          
C4       C      0.888940000000     0.595800000000     0.279700000000     0          
H2       H      0.892290000000     0.581970000000     0.299840000000     0          
C7       C      0.971620000000     0.573180000000     0.251300000000     0          
C8       C      0.982510000000     0.609030000000     0.252900000000     0          
H3       H      0.967790000000     0.628860000000     0.253780000000     0          
Zr1      Zr     0.772080000000     0.707170000000     0.292830000000     0          
O2       O      0.753200000000     0.671700000000     0.328300000000     0          
O4       O      0.806000000000     0.741600000000     0.258400000000     0          
Cu1      Cu     0.000000000000     0.500000000000     0.250000000000     0          
N1       N      0.000000000000     0.551870000000     0.250200000000     0          
C1       C      0.831870000000     0.668130000000     0.250000000000     0          
C2       C      0.859230000000     0.640770000000     0.250000000000     0          
C5       C      0.909720000000     0.590280000000     0.250000000000     0          
C6       C      0.936900000000     0.563100000000     0.250000000000     0          
O1       O      0.328200000000     0.813970000000     0.277410000000     0          
C3       C      0.378900000000     0.864040000000     0.279500000000     0          
H1       H      0.374930000000     0.850170000000     0.299600000000     0          
C4       C      0.404200000000     0.888940000000     0.279700000000     0          
H2       H      0.418030000000     0.892290000000     0.299840000000     0          
C7       C      0.426820000000     0.971620000000     0.251300000000     0          
C8       C      0.390970000000     0.982510000000     0.252900000000     0          
H3       H      0.371140000000     0.967790000000     0.253780000000     0          
Zr1      Zr     0.292830000000     0.772080000000     0.292830000000     0          
O2       O      0.328300000000     0.753200000000     0.328300000000     0          
O4       O      0.258400000000     0.806000000000     0.258400000000     0          
N1       N      0.448130000000     0.000000000000     0.250200000000     0          
C1       C      0.331870000000     0.831870000000     0.250000000000     0          
C2       C      0.359230000000     0.859230000000     0.250000000000     0          
C5       C      0.409720000000     0.909720000000     0.250000000000     0          
C6       C      0.436900000000     0.936900000000     0.250000000000     0          
O1       O      0.186030000000     0.328200000000     0.277410000000     0          
C3       C      0.135960000000     0.378900000000     0.279500000000     0          
H1       H      0.149830000000     0.374930000000     0.299600000000     0          
C4       C      0.111060000000     0.404200000000     0.279700000000     0          
H2       H      0.107710000000     0.418030000000     0.299840000000     0          
C7       C      0.028380000000     0.426820000000     0.251300000000     0          
C8       C      0.017490000000     0.390970000000     0.252900000000     0          
H3       H      0.032210000000     0.371140000000     0.253780000000     0          
Zr1      Zr     0.227920000000     0.292830000000     0.292830000000     0          
O2       O      0.246800000000     0.328300000000     0.328300000000     0          
O4       O      0.194000000000     0.258400000000     0.258400000000     0          
N1       N      0.000000000000     0.448130000000     0.250200000000     0          
C1       C      0.168130000000     0.331870000000     0.250000000000     0          
C2       C      0.140770000000     0.359230000000     0.250000000000     0          
C5       C      0.090280000000     0.409720000000     0.250000000000     0          
C6       C      0.063100000000     0.436900000000     0.250000000000     0          
O1       O      0.328200000000     0.186030000000     0.722590000000     0          
C3       C      0.378900000000     0.135960000000     0.720500000000     0          
H1       H      0.374930000000     0.149830000000     0.700400000000     0          
C4       C      0.404200000000     0.111060000000     0.720300000000     0          
H2       H      0.418030000000     0.107710000000     0.700160000000     0          
C7       C      0.426820000000     0.028380000000     0.748700000000     0          
C8       C      0.390970000000     0.017490000000     0.747100000000     0          
H3       H      0.371140000000     0.032210000000     0.746220000000     0          
Zr1      Zr     0.292830000000     0.227920000000     0.707170000000     0          
O2       O      0.328300000000     0.246800000000     0.671700000000     0          
O4       O      0.258400000000     0.194000000000     0.741600000000     0          
N1       N      0.448130000000     0.000000000000     0.749800000000     0          
C1       C      0.331870000000     0.168130000000     0.750000000000     0          
C2       C      0.359230000000     0.140770000000     0.750000000000     0          
C5       C      0.409720000000     0.090280000000     0.750000000000     0          
C6       C      0.436900000000     0.063100000000     0.750000000000     0          
O1       O      0.813970000000     0.328200000000     0.722590000000     0          
C3       C      0.864040000000     0.378900000000     0.720500000000     0          
H1       H      0.850170000000     0.374930000000     0.700400000000     0          
C4       C      0.888940000000     0.404200000000     0.720300000000     0          
H2       H      0.892290000000     0.418030000000     0.700160000000     0          
C7       C      0.971620000000     0.426820000000     0.748700000000     0          
C8       C      0.982510000000     0.390970000000     0.747100000000     0          
H3       H      0.967790000000     0.371140000000     0.746220000000     0          
Zr1      Zr     0.772080000000     0.292830000000     0.707170000000     0          
O2       O      0.753200000000     0.328300000000     0.671700000000     0          
O4       O      0.806000000000     0.258400000000     0.741600000000     0          
Cu1      Cu     0.000000000000     0.500000000000     0.750000000000     0          
N1       N      0.000000000000     0.448130000000     0.749800000000     0          
C1       C      0.831870000000     0.331870000000     0.750000000000     0          
C2       C      0.859230000000     0.359230000000     0.750000000000     0          
C5       C      0.909720000000     0.409720000000     0.750000000000     0          
C6       C      0.936900000000     0.436900000000     0.750000000000     0          
O1       O      0.186030000000     0.671800000000     0.722590000000     0          
C3       C      0.135960000000     0.621100000000     0.720500000000     0          
H1       H      0.149830000000     0.625070000000     0.700400000000     0          
C4       C      0.111060000000     0.595800000000     0.720300000000     0          
H2       H      0.107710000000     0.581970000000     0.700160000000     0          
C7       C      0.028380000000     0.573180000000     0.748700000000     0          
C8       C      0.017490000000     0.609030000000     0.747100000000     0          
H3       H      0.032210000000     0.628860000000     0.746220000000     0          
Zr1      Zr     0.227920000000     0.707170000000     0.707170000000     0          
O2       O      0.246800000000     0.671700000000     0.671700000000     0          
O4       O      0.194000000000     0.741600000000     0.741600000000     0          
N1       N      0.000000000000     0.551870000000     0.749800000000     0          
C1       C      0.168130000000     0.668130000000     0.750000000000     0          
C2       C      0.140770000000     0.640770000000     0.750000000000     0          
C5       C      0.090280000000     0.590280000000     0.750000000000     0          
C6       C      0.063100000000     0.563100000000     0.750000000000     0          
O1       O      0.277410000000     0.328200000000     0.186030000000     0          
C3       C      0.279500000000     0.378900000000     0.135960000000     0          
H1       H      0.299600000000     0.374930000000     0.149830000000     0          
C4       C      0.279700000000     0.404200000000     0.111060000000     0          
H2       H      0.299840000000     0.418030000000     0.107710000000     0          
C7       C      0.251300000000     0.426820000000     0.028380000000     0          
C8       C      0.252900000000     0.390970000000     0.017490000000     0          
H3       H      0.253780000000     0.371140000000     0.032210000000     0          
C1       C      0.250000000000     0.331870000000     0.168130000000     0          
C2       C      0.250000000000     0.359230000000     0.140770000000     0          
C5       C      0.250000000000     0.409720000000     0.090280000000     0          
C6       C      0.250000000000     0.436900000000     0.063100000000     0          
O1       O      0.671800000000     0.277410000000     0.186030000000     0          
C3       C      0.621100000000     0.279500000000     0.135960000000     0          
H1       H      0.625070000000     0.299600000000     0.149830000000     0          
C4       C      0.595800000000     0.279700000000     0.111060000000     0          
H2       H      0.581970000000     0.299840000000     0.107710000000     0          
C7       C      0.573180000000     0.251300000000     0.028380000000     0          
C8       C      0.609030000000     0.252900000000     0.017490000000     0          
H3       H      0.628860000000     0.253780000000     0.032210000000     0          
C1       C      0.668130000000     0.250000000000     0.168130000000     0          
C2       C      0.640770000000     0.250000000000     0.140770000000     0          
C5       C      0.590280000000     0.250000000000     0.090280000000     0          
C6       C      0.563100000000     0.250000000000     0.063100000000     0          
O1       O      0.722590000000     0.671800000000     0.186030000000     0          
C3       C      0.720500000000     0.621100000000     0.135960000000     0          
H1       H      0.700400000000     0.625070000000     0.149830000000     0          
C4       C      0.720300000000     0.595800000000     0.111060000000     0          
H2       H      0.700160000000     0.581970000000     0.107710000000     0          
C7       C      0.748700000000     0.573180000000     0.028380000000     0          
C8       C      0.747100000000     0.609030000000     0.017490000000     0          
H3       H      0.746220000000     0.628860000000     0.032210000000     0          
C1       C      0.750000000000     0.668130000000     0.168130000000     0          
C2       C      0.750000000000     0.640770000000     0.140770000000     0          
C5       C      0.750000000000     0.590280000000     0.090280000000     0          
C6       C      0.750000000000     0.563100000000     0.063100000000     0          
O1       O      0.328200000000     0.722590000000     0.186030000000     0          
C3       C      0.378900000000     0.720500000000     0.135960000000     0          
H1       H      0.374930000000     0.700400000000     0.149830000000     0          
C4       C      0.404200000000     0.720300000000     0.111060000000     0          
H2       H      0.418030000000     0.700160000000     0.107710000000     0          
C7       C      0.426820000000     0.748700000000     0.028380000000     0          
C8       C      0.390970000000     0.747100000000     0.017490000000     0          
H3       H      0.371140000000     0.746220000000     0.032210000000     0          
C1       C      0.331870000000     0.750000000000     0.168130000000     0          
C2       C      0.359230000000     0.750000000000     0.140770000000     0          
C5       C      0.409720000000     0.750000000000     0.090280000000     0          
C6       C      0.436900000000     0.750000000000     0.063100000000     0          
O1       O      0.277410000000     0.671800000000     0.813970000000     0          
C3       C      0.279500000000     0.621100000000     0.864040000000     0          
H1       H      0.299600000000     0.625070000000     0.850170000000     0          
C4       C      0.279700000000     0.595800000000     0.888940000000     0          
H2       H      0.299840000000     0.581970000000     0.892290000000     0          
C7       C      0.251300000000     0.573180000000     0.971620000000     0          
C8       C      0.252900000000     0.609030000000     0.982510000000     0          
H3       H      0.253780000000     0.628860000000     0.967790000000     0          
C1       C      0.250000000000     0.668130000000     0.831870000000     0          
C2       C      0.250000000000     0.640770000000     0.859230000000     0          
C5       C      0.250000000000     0.590280000000     0.909720000000     0          
C6       C      0.250000000000     0.563100000000     0.936900000000     0          
O1       O      0.328200000000     0.277410000000     0.813970000000     0          
C3       C      0.378900000000     0.279500000000     0.864040000000     0          
H1       H      0.374930000000     0.299600000000     0.850170000000     0          
C4       C      0.404200000000     0.279700000000     0.888940000000     0          
H2       H      0.418030000000     0.299840000000     0.892290000000     0          
C7       C      0.426820000000     0.251300000000     0.971620000000     0          
C8       C      0.390970000000     0.252900000000     0.982510000000     0          
H3       H      0.371140000000     0.253780000000     0.967790000000     0          
C1       C      0.331870000000     0.250000000000     0.831870000000     0          
C2       C      0.359230000000     0.250000000000     0.859230000000     0          
C5       C      0.409720000000     0.250000000000     0.909720000000     0          
C6       C      0.436900000000     0.250000000000     0.936900000000     0          
O1       O      0.722590000000     0.328200000000     0.813970000000     0          
C3       C      0.720500000000     0.378900000000     0.864040000000     0          
H1       H      0.700400000000     0.374930000000     0.850170000000     0          
C4       C      0.720300000000     0.404200000000     0.888940000000     0          
H2       H      0.700160000000     0.418030000000     0.892290000000     0          
C7       C      0.748700000000     0.426820000000     0.971620000000     0          
C8       C      0.747100000000     0.390970000000     0.982510000000     0          
H3       H      0.746220000000     0.371140000000     0.967790000000     0          
C1       C      0.750000000000     0.331870000000     0.831870000000     0          
C2       C      0.750000000000     0.359230000000     0.859230000000     0          
C5       C      0.750000000000     0.409720000000     0.909720000000     0          
C6       C      0.750000000000     0.436900000000     0.936900000000     0          
O1       O      0.671800000000     0.722590000000     0.813970000000     0          
C3       C      0.621100000000     0.720500000000     0.864040000000     0          
H1       H      0.625070000000     0.700400000000     0.850170000000     0          
C4       C      0.595800000000     0.720300000000     0.888940000000     0          
H2       H      0.581970000000     0.700160000000     0.892290000000     0          
C7       C      0.573180000000     0.748700000000     0.971620000000     0          
C8       C      0.609030000000     0.747100000000     0.982510000000     0          
H3       H      0.628860000000     0.746220000000     0.967790000000     0          
C1       C      0.668130000000     0.750000000000     0.831870000000     0          
C2       C      0.640770000000     0.750000000000     0.859230000000     0          
C5       C      0.590280000000     0.750000000000     0.909720000000     0          
C6       C      0.563100000000     0.750000000000     0.936900000000     0          
O1       O      0.186030000000     0.277410000000     0.328200000000     0          
C3       C      0.135960000000     0.279500000000     0.378900000000     0          
H1       H      0.149830000000     0.299600000000     0.374930000000     0          
C4       C      0.111060000000     0.279700000000     0.404200000000     0          
H2       H      0.107710000000     0.299840000000     0.418030000000     0          
C7       C      0.028380000000     0.251300000000     0.426820000000     0          
C8       C      0.017490000000     0.252900000000     0.390970000000     0          
H3       H      0.032210000000     0.253780000000     0.371140000000     0          
C1       C      0.168130000000     0.250000000000     0.331870000000     0          
C2       C      0.140770000000     0.250000000000     0.359230000000     0          
C5       C      0.090280000000     0.250000000000     0.409720000000     0          
C6       C      0.063100000000     0.250000000000     0.436900000000     0          
O1       O      0.722590000000     0.186030000000     0.328200000000     0          
C3       C      0.720500000000     0.135960000000     0.378900000000     0          
H1       H      0.700400000000     0.149830000000     0.374930000000     0          
C4       C      0.720300000000     0.111060000000     0.404200000000     0          
H2       H      0.700160000000     0.107710000000     0.418030000000     0          
C7       C      0.748700000000     0.028380000000     0.426820000000     0          
C8       C      0.747100000000     0.017490000000     0.390970000000     0          
H3       H      0.746220000000     0.032210000000     0.371140000000     0          
C1       C      0.750000000000     0.168130000000     0.331870000000     0          
C2       C      0.750000000000     0.140770000000     0.359230000000     0          
C5       C      0.750000000000     0.090280000000     0.409720000000     0          
C6       C      0.750000000000     0.063100000000     0.436900000000     0          
O1       O      0.813970000000     0.722590000000     0.328200000000     0          
C3       C      0.864040000000     0.720500000000     0.378900000000     0          
H1       H      0.850170000000     0.700400000000     0.374930000000     0          
C4       C      0.888940000000     0.720300000000     0.404200000000     0          
H2       H      0.892290000000     0.700160000000     0.418030000000     0          
C7       C      0.971620000000     0.748700000000     0.426820000000     0          
C8       C      0.982510000000     0.747100000000     0.390970000000     0          
H3       H      0.967790000000     0.746220000000     0.371140000000     0          
C1       C      0.831870000000     0.750000000000     0.331870000000     0          
C2       C      0.859230000000     0.750000000000     0.359230000000     0          
C5       C      0.909720000000     0.750000000000     0.409720000000     0          
C6       C      0.936900000000     0.750000000000     0.436900000000     0          
O1       O      0.277410000000     0.813970000000     0.328200000000     0          
C3       C      0.279500000000     0.864040000000     0.378900000000     0          
H1       H      0.299600000000     0.850170000000     0.374930000000     0          
C4       C      0.279700000000     0.888940000000     0.404200000000     0          
H2       H      0.299840000000     0.892290000000     0.418030000000     0          
C7       C      0.251300000000     0.971620000000     0.426820000000     0          
C8       C      0.252900000000     0.982510000000     0.390970000000     0          
H3       H      0.253780000000     0.967790000000     0.371140000000     0          
C1       C      0.250000000000     0.831870000000     0.331870000000     0          
C2       C      0.250000000000     0.859230000000     0.359230000000     0          
C5       C      0.250000000000     0.909720000000     0.409720000000     0          
C6       C      0.250000000000     0.936900000000     0.436900000000     0          
O1       O      0.186030000000     0.722590000000     0.671800000000     0          
C3       C      0.135960000000     0.720500000000     0.621100000000     0          
H1       H      0.149830000000     0.700400000000     0.625070000000     0          
C4       C      0.111060000000     0.720300000000     0.595800000000     0          
H2       H      0.107710000000     0.700160000000     0.581970000000     0          
C7       C      0.028380000000     0.748700000000     0.573180000000     0          
C8       C      0.017490000000     0.747100000000     0.609030000000     0          
H3       H      0.032210000000     0.746220000000     0.628860000000     0          
C1       C      0.168130000000     0.750000000000     0.668130000000     0          
C2       C      0.140770000000     0.750000000000     0.640770000000     0          
C5       C      0.090280000000     0.750000000000     0.590280000000     0          
C6       C      0.063100000000     0.750000000000     0.563100000000     0          
O1       O      0.277410000000     0.186030000000     0.671800000000     0          
C3       C      0.279500000000     0.135960000000     0.621100000000     0          
H1       H      0.299600000000     0.149830000000     0.625070000000     0          
C4       C      0.279700000000     0.111060000000     0.595800000000     0          
H2       H      0.299840000000     0.107710000000     0.581970000000     0          
C7       C      0.251300000000     0.028380000000     0.573180000000     0          
C8       C      0.252900000000     0.017490000000     0.609030000000     0          
H3       H      0.253780000000     0.032210000000     0.628860000000     0          
C1       C      0.250000000000     0.168130000000     0.668130000000     0          
C2       C      0.250000000000     0.140770000000     0.640770000000     0          
C5       C      0.250000000000     0.090280000000     0.590280000000     0          
C6       C      0.250000000000     0.063100000000     0.563100000000     0          
O1       O      0.813970000000     0.277410000000     0.671800000000     0          
C3       C      0.864040000000     0.279500000000     0.621100000000     0          
H1       H      0.850170000000     0.299600000000     0.625070000000     0          
C4       C      0.888940000000     0.279700000000     0.595800000000     0          
H2       H      0.892290000000     0.299840000000     0.581970000000     0          
C7       C      0.971620000000     0.251300000000     0.573180000000     0          
C8       C      0.982510000000     0.252900000000     0.609030000000     0          
H3       H      0.967790000000     0.253780000000     0.628860000000     0          
C1       C      0.831870000000     0.250000000000     0.668130000000     0          
C2       C      0.859230000000     0.250000000000     0.640770000000     0          
C5       C      0.909720000000     0.250000000000     0.590280000000     0          
C6       C      0.936900000000     0.250000000000     0.563100000000     0          
O1       O      0.722590000000     0.813970000000     0.671800000000     0          
C3       C      0.720500000000     0.864040000000     0.621100000000     0          
H1       H      0.700400000000     0.850170000000     0.625070000000     0          
C4       C      0.720300000000     0.888940000000     0.595800000000     0          
H2       H      0.700160000000     0.892290000000     0.581970000000     0          
C7       C      0.748700000000     0.971620000000     0.573180000000     0          
C8       C      0.747100000000     0.982510000000     0.609030000000     0          
H3       H      0.746220000000     0.967790000000     0.628860000000     0          
C1       C      0.750000000000     0.831870000000     0.668130000000     0          
C2       C      0.750000000000     0.859230000000     0.640770000000     0          
C5       C      0.750000000000     0.909720000000     0.590280000000     0          
C6       C      0.750000000000     0.936900000000     0.563100000000     0          
O1       O      0.328200000000     0.186030000000     0.277410000000     0          
C3       C      0.378900000000     0.135960000000     0.279500000000     0          
H1       H      0.374930000000     0.149830000000     0.299600000000     0          
C4       C      0.404200000000     0.111060000000     0.279700000000     0          
H2       H      0.418030000000     0.107710000000     0.299840000000     0          
C7       C      0.426820000000     0.028380000000     0.251300000000     0          
C8       C      0.390970000000     0.017490000000     0.252900000000     0          
H3       H      0.371140000000     0.032210000000     0.253780000000     0          
C1       C      0.331870000000     0.168130000000     0.250000000000     0          
C2       C      0.359230000000     0.140770000000     0.250000000000     0          
C5       C      0.409720000000     0.090280000000     0.250000000000     0          
C6       C      0.436900000000     0.063100000000     0.250000000000     0          
O1       O      0.328200000000     0.813970000000     0.722590000000     0          
C3       C      0.378900000000     0.864040000000     0.720500000000     0          
H1       H      0.374930000000     0.850170000000     0.700400000000     0          
C4       C      0.404200000000     0.888940000000     0.720300000000     0          
H2       H      0.418030000000     0.892290000000     0.700160000000     0          
C7       C      0.426820000000     0.971620000000     0.748700000000     0          
C8       C      0.390970000000     0.982510000000     0.747100000000     0          
H3       H      0.371140000000     0.967790000000     0.746220000000     0          
C1       C      0.331870000000     0.831870000000     0.750000000000     0          
C2       C      0.359230000000     0.859230000000     0.750000000000     0          
C5       C      0.409720000000     0.909720000000     0.750000000000     0          
C6       C      0.436900000000     0.936900000000     0.750000000000     0          
O1       O      0.186030000000     0.328200000000     0.722590000000     0          
C3       C      0.135960000000     0.378900000000     0.720500000000     0          
H1       H      0.149830000000     0.374930000000     0.700400000000     0          
C4       C      0.111060000000     0.404200000000     0.720300000000     0          
H2       H      0.107710000000     0.418030000000     0.700160000000     0          
C7       C      0.028380000000     0.426820000000     0.748700000000     0          
C8       C      0.017490000000     0.390970000000     0.747100000000     0          
H3       H      0.032210000000     0.371140000000     0.746220000000     0          
C1       C      0.168130000000     0.331870000000     0.750000000000     0          
C2       C      0.140770000000     0.359230000000     0.750000000000     0          
C5       C      0.090280000000     0.409720000000     0.750000000000     0          
C6       C      0.063100000000     0.436900000000     0.750000000000     0          
O1       O      0.671800000000     0.186030000000     0.722590000000     0          
C3       C      0.621100000000     0.135960000000     0.720500000000     0          
H1       H      0.625070000000     0.149830000000     0.700400000000     0          
C4       C      0.595800000000     0.111060000000     0.720300000000     0          
H2       H      0.581970000000     0.107710000000     0.700160000000     0          
C7       C      0.573180000000     0.028380000000     0.748700000000     0          
C8       C      0.609030000000     0.017490000000     0.747100000000     0          
H3       H      0.628860000000     0.032210000000     0.746220000000     0          
C1       C      0.668130000000     0.168130000000     0.750000000000     0          
C2       C      0.640770000000     0.140770000000     0.750000000000     0          
C5       C      0.590280000000     0.090280000000     0.750000000000     0          
C6       C      0.563100000000     0.063100000000     0.750000000000     0          
O1       O      0.813970000000     0.671800000000     0.722590000000     0          
C3       C      0.864040000000     0.621100000000     0.720500000000     0          
H1       H      0.850170000000     0.625070000000     0.700400000000     0          
C4       C      0.888940000000     0.595800000000     0.720300000000     0          
H2       H      0.892290000000     0.581970000000     0.700160000000     0          
C7       C      0.971620000000     0.573180000000     0.748700000000     0          
C8       C      0.982510000000     0.609030000000     0.747100000000     0          
H3       H      0.967790000000     0.628860000000     0.746220000000     0          
C1       C      0.831870000000     0.668130000000     0.750000000000     0          
C2       C      0.859230000000     0.640770000000     0.750000000000     0          
C5       C      0.909720000000     0.590280000000     0.750000000000     0          
C6       C      0.936900000000     0.563100000000     0.750000000000     0          
O1       O      0.671800000000     0.813970000000     0.277410000000     0          
C3       C      0.621100000000     0.864040000000     0.279500000000     0          
H1       H      0.625070000000     0.850170000000     0.299600000000     0          
C4       C      0.595800000000     0.888940000000     0.279700000000     0          
H2       H      0.581970000000     0.892290000000     0.299840000000     0          
C7       C      0.573180000000     0.971620000000     0.251300000000     0          
C8       C      0.609030000000     0.982510000000     0.252900000000     0          
H3       H      0.628860000000     0.967790000000     0.253780000000     0          
C1       C      0.668130000000     0.831870000000     0.250000000000     0          
C2       C      0.640770000000     0.859230000000     0.250000000000     0          
C5       C      0.590280000000     0.909720000000     0.250000000000     0          
C6       C      0.563100000000     0.936900000000     0.250000000000     0          
O1       O      0.186030000000     0.671800000000     0.277410000000     0          
C3       C      0.135960000000     0.621100000000     0.279500000000     0          
H1       H      0.149830000000     0.625070000000     0.299600000000     0          
C4       C      0.111060000000     0.595800000000     0.279700000000     0          
H2       H      0.107710000000     0.581970000000     0.299840000000     0          
C7       C      0.028380000000     0.573180000000     0.251300000000     0          
C8       C      0.017490000000     0.609030000000     0.252900000000     0          
H3       H      0.032210000000     0.628860000000     0.253780000000     0          
C1       C      0.168130000000     0.668130000000     0.250000000000     0          
C2       C      0.140770000000     0.640770000000     0.250000000000     0          
C5       C      0.090280000000     0.590280000000     0.250000000000     0          
C6       C      0.063100000000     0.563100000000     0.250000000000     0          
O1       O      0.813970000000     0.328200000000     0.277410000000     0          
C3       C      0.864040000000     0.378900000000     0.279500000000     0          
H1       H      0.850170000000     0.374930000000     0.299600000000     0          
C4       C      0.888940000000     0.404200000000     0.279700000000     0          
H2       H      0.892290000000     0.418030000000     0.299840000000     0          
C7       C      0.971620000000     0.426820000000     0.251300000000     0          
C8       C      0.982510000000     0.390970000000     0.252900000000     0          
H3       H      0.967790000000     0.371140000000     0.253780000000     0          
C1       C      0.831870000000     0.331870000000     0.250000000000     0          
C2       C      0.859230000000     0.359230000000     0.250000000000     0          
C5       C      0.909720000000     0.409720000000     0.250000000000     0          
C6       C      0.936900000000     0.436900000000     0.250000000000     0          
O1       O      0.222590000000     0.171800000000     0.313970000000     0          
C3       C      0.220500000000     0.121100000000     0.364040000000     0          
H1       H      0.200400000000     0.125070000000     0.350170000000     0          
C4       C      0.220300000000     0.095800000000     0.388940000000     0          
H2       H      0.200160000000     0.081970000000     0.392290000000     0          
C7       C      0.248700000000     0.073180000000     0.471620000000     0          
C8       C      0.247100000000     0.109030000000     0.482510000000     0          
H3       H      0.246220000000     0.128860000000     0.467790000000     0          
Zr1      Zr     0.207170000000     0.207170000000     0.272080000000     0          
O2       O      0.171700000000     0.171700000000     0.253200000000     0          
O4       O      0.241600000000     0.241600000000     0.306000000000     0          
O3       O      0.217360000000     0.217360000000     0.217360000000     0          
N1       N      0.249800000000     0.051870000000     0.500000000000     0          
O1       O      0.828200000000     0.222590000000     0.313970000000     0          
C3       C      0.878900000000     0.220500000000     0.364040000000     0          
H1       H      0.874930000000     0.200400000000     0.350170000000     0          
C4       C      0.904200000000     0.220300000000     0.388940000000     0          
H2       H      0.918030000000     0.200160000000     0.392290000000     0          
C7       C      0.926820000000     0.248700000000     0.471620000000     0          
C8       C      0.890970000000     0.247100000000     0.482510000000     0          
H3       H      0.871140000000     0.246220000000     0.467790000000     0          
Zr1      Zr     0.792830000000     0.207170000000     0.272080000000     0          
O2       O      0.828300000000     0.171700000000     0.253200000000     0          
O4       O      0.758400000000     0.241600000000     0.306000000000     0          
O3       O      0.782640000000     0.217360000000     0.217360000000     0          
N1       N      0.948130000000     0.249800000000     0.500000000000     0          
O1       O      0.777410000000     0.828200000000     0.313970000000     0          
C3       C      0.779500000000     0.878900000000     0.364040000000     0          
H1       H      0.799600000000     0.874930000000     0.350170000000     0          
C4       C      0.779700000000     0.904200000000     0.388940000000     0          
H2       H      0.799840000000     0.918030000000     0.392290000000     0          
C7       C      0.751300000000     0.926820000000     0.471620000000     0          
C8       C      0.752900000000     0.890970000000     0.482510000000     0          
H3       H      0.753780000000     0.871140000000     0.467790000000     0          
Zr1      Zr     0.792830000000     0.792830000000     0.272080000000     0          
O2       O      0.828300000000     0.828300000000     0.253200000000     0          
O4       O      0.758400000000     0.758400000000     0.306000000000     0          
O3       O      0.782640000000     0.782640000000     0.217360000000     0          
N1       N      0.750200000000     0.948130000000     0.500000000000     0          
O1       O      0.171800000000     0.777410000000     0.313970000000     0          
C3       C      0.121100000000     0.779500000000     0.364040000000     0          
H1       H      0.125070000000     0.799600000000     0.350170000000     0          
C4       C      0.095800000000     0.779700000000     0.388940000000     0          
H2       H      0.081970000000     0.799840000000     0.392290000000     0          
C7       C      0.073180000000     0.751300000000     0.471620000000     0          
C8       C      0.109030000000     0.752900000000     0.482510000000     0          
H3       H      0.128860000000     0.753780000000     0.467790000000     0          
Zr1      Zr     0.207170000000     0.792830000000     0.272080000000     0          
O2       O      0.171700000000     0.828300000000     0.253200000000     0          
O4       O      0.241600000000     0.758400000000     0.306000000000     0          
O3       O      0.217360000000     0.782640000000     0.217360000000     0          
N1       N      0.051870000000     0.750200000000     0.500000000000     0          
O1       O      0.222590000000     0.828200000000     0.686030000000     0          
C3       C      0.220500000000     0.878900000000     0.635960000000     0          
H1       H      0.200400000000     0.874930000000     0.649830000000     0          
C4       C      0.220300000000     0.904200000000     0.611060000000     0          
H2       H      0.200160000000     0.918030000000     0.607710000000     0          
C7       C      0.248700000000     0.926820000000     0.528380000000     0          
C8       C      0.247100000000     0.890970000000     0.517490000000     0          
H3       H      0.246220000000     0.871140000000     0.532210000000     0          
Zr1      Zr     0.207170000000     0.792830000000     0.727920000000     0          
O2       O      0.171700000000     0.828300000000     0.746800000000     0          
O4       O      0.241600000000     0.758400000000     0.694000000000     0          
O3       O      0.217360000000     0.782640000000     0.782640000000     0          
N1       N      0.249800000000     0.948130000000     0.500000000000     0          
O1       O      0.171800000000     0.222590000000     0.686030000000     0          
C3       C      0.121100000000     0.220500000000     0.635960000000     0          
H1       H      0.125070000000     0.200400000000     0.649830000000     0          
C4       C      0.095800000000     0.220300000000     0.611060000000     0          
H2       H      0.081970000000     0.200160000000     0.607710000000     0          
C7       C      0.073180000000     0.248700000000     0.528380000000     0          
C8       C      0.109030000000     0.247100000000     0.517490000000     0          
H3       H      0.128860000000     0.246220000000     0.532210000000     0          
Zr1      Zr     0.207170000000     0.207170000000     0.727920000000     0          
O2       O      0.171700000000     0.171700000000     0.746800000000     0          
O4       O      0.241600000000     0.241600000000     0.694000000000     0          
O3       O      0.217360000000     0.217360000000     0.782640000000     0          
N1       N      0.051870000000     0.249800000000     0.500000000000     0          
O1       O      0.777410000000     0.171800000000     0.686030000000     0          
C3       C      0.779500000000     0.121100000000     0.635960000000     0          
H1       H      0.799600000000     0.125070000000     0.649830000000     0          
C4       C      0.779700000000     0.095800000000     0.611060000000     0          
H2       H      0.799840000000     0.081970000000     0.607710000000     0          
C7       C      0.751300000000     0.073180000000     0.528380000000     0          
C8       C      0.752900000000     0.109030000000     0.517490000000     0          
H3       H      0.753780000000     0.128860000000     0.532210000000     0          
Zr1      Zr     0.792830000000     0.207170000000     0.727920000000     0          
O2       O      0.828300000000     0.171700000000     0.746800000000     0          
O4       O      0.758400000000     0.241600000000     0.694000000000     0          
O3       O      0.782640000000     0.217360000000     0.782640000000     0          
N1       N      0.750200000000     0.051870000000     0.500000000000     0          
O1       O      0.828200000000     0.777410000000     0.686030000000     0          
C3       C      0.878900000000     0.779500000000     0.635960000000     0          
H1       H      0.874930000000     0.799600000000     0.649830000000     0          
C4       C      0.904200000000     0.779700000000     0.611060000000     0          
H2       H      0.918030000000     0.799840000000     0.607710000000     0          
C7       C      0.926820000000     0.751300000000     0.528380000000     0          
C8       C      0.890970000000     0.752900000000     0.517490000000     0          
H3       H      0.871140000000     0.753780000000     0.532210000000     0          
Zr1      Zr     0.792830000000     0.792830000000     0.727920000000     0          
O2       O      0.828300000000     0.828300000000     0.746800000000     0          
O4       O      0.758400000000     0.758400000000     0.694000000000     0          
O3       O      0.782640000000     0.782640000000     0.782640000000     0          
N1       N      0.948130000000     0.750200000000     0.500000000000     0          
O1       O      0.313970000000     0.222590000000     0.171800000000     0          
C3       C      0.364040000000     0.220500000000     0.121100000000     0          
H1       H      0.350170000000     0.200400000000     0.125070000000     0          
C4       C      0.388940000000     0.220300000000     0.095800000000     0          
H2       H      0.392290000000     0.200160000000     0.081970000000     0          
C7       C      0.471620000000     0.248700000000     0.073180000000     0          
C8       C      0.482510000000     0.247100000000     0.109030000000     0          
H3       H      0.467790000000     0.246220000000     0.128860000000     0          
Zr1      Zr     0.272080000000     0.207170000000     0.207170000000     0          
O2       O      0.253200000000     0.171700000000     0.171700000000     0          
O4       O      0.306000000000     0.241600000000     0.241600000000     0          
N1       N      0.500000000000     0.249800000000     0.051870000000     0          
O1       O      0.777410000000     0.313970000000     0.171800000000     0          
C3       C      0.779500000000     0.364040000000     0.121100000000     0          
H1       H      0.799600000000     0.350170000000     0.125070000000     0          
C4       C      0.779700000000     0.388940000000     0.095800000000     0          
H2       H      0.799840000000     0.392290000000     0.081970000000     0          
C7       C      0.751300000000     0.471620000000     0.073180000000     0          
C8       C      0.752900000000     0.482510000000     0.109030000000     0          
H3       H      0.753780000000     0.467790000000     0.128860000000     0          
Zr1      Zr     0.792830000000     0.272080000000     0.207170000000     0          
O2       O      0.828300000000     0.253200000000     0.171700000000     0          
O4       O      0.758400000000     0.306000000000     0.241600000000     0          
N1       N      0.750200000000     0.500000000000     0.051870000000     0          
O1       O      0.686030000000     0.777410000000     0.171800000000     0          
C3       C      0.635960000000     0.779500000000     0.121100000000     0          
H1       H      0.649830000000     0.799600000000     0.125070000000     0          
C4       C      0.611060000000     0.779700000000     0.095800000000     0          
H2       H      0.607710000000     0.799840000000     0.081970000000     0          
C7       C      0.528380000000     0.751300000000     0.073180000000     0          
C8       C      0.517490000000     0.752900000000     0.109030000000     0          
H3       H      0.532210000000     0.753780000000     0.128860000000     0          
Zr1      Zr     0.727920000000     0.792830000000     0.207170000000     0          
O2       O      0.746800000000     0.828300000000     0.171700000000     0          
O4       O      0.694000000000     0.758400000000     0.241600000000     0          
N1       N      0.500000000000     0.750200000000     0.051870000000     0          
O1       O      0.222590000000     0.686030000000     0.171800000000     0          
C3       C      0.220500000000     0.635960000000     0.121100000000     0          
H1       H      0.200400000000     0.649830000000     0.125070000000     0          
C4       C      0.220300000000     0.611060000000     0.095800000000     0          
H2       H      0.200160000000     0.607710000000     0.081970000000     0          
C7       C      0.248700000000     0.528380000000     0.073180000000     0          
C8       C      0.247100000000     0.517490000000     0.109030000000     0          
H3       H      0.246220000000     0.532210000000     0.128860000000     0          
Zr1      Zr     0.207170000000     0.727920000000     0.207170000000     0          
O2       O      0.171700000000     0.746800000000     0.171700000000     0          
O4       O      0.241600000000     0.694000000000     0.241600000000     0          
N1       N      0.249800000000     0.500000000000     0.051870000000     0          
O1       O      0.313970000000     0.777410000000     0.828200000000     0          
C3       C      0.364040000000     0.779500000000     0.878900000000     0          
H1       H      0.350170000000     0.799600000000     0.874930000000     0          
C4       C      0.388940000000     0.779700000000     0.904200000000     0          
H2       H      0.392290000000     0.799840000000     0.918030000000     0          
C7       C      0.471620000000     0.751300000000     0.926820000000     0          
C8       C      0.482510000000     0.752900000000     0.890970000000     0          
H3       H      0.467790000000     0.753780000000     0.871140000000     0          
Zr1      Zr     0.272080000000     0.792830000000     0.792830000000     0          
O2       O      0.253200000000     0.828300000000     0.828300000000     0          
O4       O      0.306000000000     0.758400000000     0.758400000000     0          
N1       N      0.500000000000     0.750200000000     0.948130000000     0          
O1       O      0.222590000000     0.313970000000     0.828200000000     0          
C3       C      0.220500000000     0.364040000000     0.878900000000     0          
H1       H      0.200400000000     0.350170000000     0.874930000000     0          
C4       C      0.220300000000     0.388940000000     0.904200000000     0          
H2       H      0.200160000000     0.392290000000     0.918030000000     0          
C7       C      0.248700000000     0.471620000000     0.926820000000     0          
C8       C      0.247100000000     0.482510000000     0.890970000000     0          
H3       H      0.246220000000     0.467790000000     0.871140000000     0          
Zr1      Zr     0.207170000000     0.272080000000     0.792830000000     0          
O2       O      0.171700000000     0.253200000000     0.828300000000     0          
O4       O      0.241600000000     0.306000000000     0.758400000000     0          
N1       N      0.249800000000     0.500000000000     0.948130000000     0          
O1       O      0.686030000000     0.222590000000     0.828200000000     0          
C3       C      0.635960000000     0.220500000000     0.878900000000     0          
H1       H      0.649830000000     0.200400000000     0.874930000000     0          
C4       C      0.611060000000     0.220300000000     0.904200000000     0          
H2       H      0.607710000000     0.200160000000     0.918030000000     0          
C7       C      0.528380000000     0.248700000000     0.926820000000     0          
C8       C      0.517490000000     0.247100000000     0.890970000000     0          
H3       H      0.532210000000     0.246220000000     0.871140000000     0          
Zr1      Zr     0.727920000000     0.207170000000     0.792830000000     0          
O2       O      0.746800000000     0.171700000000     0.828300000000     0          
O4       O      0.694000000000     0.241600000000     0.758400000000     0          
N1       N      0.500000000000     0.249800000000     0.948130000000     0          
O1       O      0.777410000000     0.686030000000     0.828200000000     0          
C3       C      0.779500000000     0.635960000000     0.878900000000     0          
H1       H      0.799600000000     0.649830000000     0.874930000000     0          
C4       C      0.779700000000     0.611060000000     0.904200000000     0          
H2       H      0.799840000000     0.607710000000     0.918030000000     0          
C7       C      0.751300000000     0.528380000000     0.926820000000     0          
C8       C      0.752900000000     0.517490000000     0.890970000000     0          
H3       H      0.753780000000     0.532210000000     0.871140000000     0          
Zr1      Zr     0.792830000000     0.727920000000     0.792830000000     0          
O2       O      0.828300000000     0.746800000000     0.828300000000     0          
O4       O      0.758400000000     0.694000000000     0.758400000000     0          
N1       N      0.750200000000     0.500000000000     0.948130000000     0          
O1       O      0.171800000000     0.313970000000     0.222590000000     0          
C3       C      0.121100000000     0.364040000000     0.220500000000     0          
H1       H      0.125070000000     0.350170000000     0.200400000000     0          
C4       C      0.095800000000     0.388940000000     0.220300000000     0          
H2       H      0.081970000000     0.392290000000     0.200160000000     0          
C7       C      0.073180000000     0.471620000000     0.248700000000     0          
C8       C      0.109030000000     0.482510000000     0.247100000000     0          
H3       H      0.128860000000     0.467790000000     0.246220000000     0          
Zr1      Zr     0.207170000000     0.272080000000     0.207170000000     0          
O2       O      0.171700000000     0.253200000000     0.171700000000     0          
O4       O      0.241600000000     0.306000000000     0.241600000000     0          
N1       N      0.051870000000     0.500000000000     0.249800000000     0          
O1       O      0.171800000000     0.686030000000     0.777410000000     0          
C3       C      0.121100000000     0.635960000000     0.779500000000     0          
H1       H      0.125070000000     0.649830000000     0.799600000000     0          
C4       C      0.095800000000     0.611060000000     0.779700000000     0          
H2       H      0.081970000000     0.607710000000     0.799840000000     0          
C7       C      0.073180000000     0.528380000000     0.751300000000     0          
C8       C      0.109030000000     0.517490000000     0.752900000000     0          
H3       H      0.128860000000     0.532210000000     0.753780000000     0          
Zr1      Zr     0.207170000000     0.727920000000     0.792830000000     0          
O2       O      0.171700000000     0.746800000000     0.828300000000     0          
O4       O      0.241600000000     0.694000000000     0.758400000000     0          
N1       N      0.051870000000     0.500000000000     0.750200000000     0          
O1       O      0.313970000000     0.171800000000     0.777410000000     0          
C3       C      0.364040000000     0.121100000000     0.779500000000     0          
H1       H      0.350170000000     0.125070000000     0.799600000000     0          
C4       C      0.388940000000     0.095800000000     0.779700000000     0          
H2       H      0.392290000000     0.081970000000     0.799840000000     0          
C7       C      0.471620000000     0.073180000000     0.751300000000     0          
C8       C      0.482510000000     0.109030000000     0.752900000000     0          
H3       H      0.467790000000     0.128860000000     0.753780000000     0          
Zr1      Zr     0.272080000000     0.207170000000     0.792830000000     0          
O2       O      0.253200000000     0.171700000000     0.828300000000     0          
O4       O      0.306000000000     0.241600000000     0.758400000000     0          
N1       N      0.500000000000     0.051870000000     0.750200000000     0          
O1       O      0.828200000000     0.313970000000     0.777410000000     0          
C3       C      0.878900000000     0.364040000000     0.779500000000     0          
H1       H      0.874930000000     0.350170000000     0.799600000000     0          
C4       C      0.904200000000     0.388940000000     0.779700000000     0          
H2       H      0.918030000000     0.392290000000     0.799840000000     0          
C7       C      0.926820000000     0.471620000000     0.751300000000     0          
C8       C      0.890970000000     0.482510000000     0.752900000000     0          
H3       H      0.871140000000     0.467790000000     0.753780000000     0          
Zr1      Zr     0.792830000000     0.272080000000     0.792830000000     0          
O2       O      0.828300000000     0.253200000000     0.828300000000     0          
O4       O      0.758400000000     0.306000000000     0.758400000000     0          
N1       N      0.948130000000     0.500000000000     0.750200000000     0          
O1       O      0.686030000000     0.828200000000     0.777410000000     0          
C3       C      0.635960000000     0.878900000000     0.779500000000     0          
H1       H      0.649830000000     0.874930000000     0.799600000000     0          
C4       C      0.611060000000     0.904200000000     0.779700000000     0          
H2       H      0.607710000000     0.918030000000     0.799840000000     0          
C7       C      0.528380000000     0.926820000000     0.751300000000     0          
C8       C      0.517490000000     0.890970000000     0.752900000000     0          
H3       H      0.532210000000     0.871140000000     0.753780000000     0          
Zr1      Zr     0.727920000000     0.792830000000     0.792830000000     0          
O2       O      0.746800000000     0.828300000000     0.828300000000     0          
O4       O      0.694000000000     0.758400000000     0.758400000000     0          
N1       N      0.500000000000     0.948130000000     0.750200000000     0          
O1       O      0.828200000000     0.686030000000     0.222590000000     0          
C3       C      0.878900000000     0.635960000000     0.220500000000     0          
H1       H      0.874930000000     0.649830000000     0.200400000000     0          
C4       C      0.904200000000     0.611060000000     0.220300000000     0          
H2       H      0.918030000000     0.607710000000     0.200160000000     0          
C7       C      0.926820000000     0.528380000000     0.248700000000     0          
C8       C      0.890970000000     0.517490000000     0.247100000000     0          
H3       H      0.871140000000     0.532210000000     0.246220000000     0          
Zr1      Zr     0.792830000000     0.727920000000     0.207170000000     0          
O2       O      0.828300000000     0.746800000000     0.171700000000     0          
O4       O      0.758400000000     0.694000000000     0.241600000000     0          
N1       N      0.948130000000     0.500000000000     0.249800000000     0          
O1       O      0.313970000000     0.828200000000     0.222590000000     0          
C3       C      0.364040000000     0.878900000000     0.220500000000     0          
H1       H      0.350170000000     0.874930000000     0.200400000000     0          
C4       C      0.388940000000     0.904200000000     0.220300000000     0          
H2       H      0.392290000000     0.918030000000     0.200160000000     0          
C7       C      0.471620000000     0.926820000000     0.248700000000     0          
C8       C      0.482510000000     0.890970000000     0.247100000000     0          
H3       H      0.467790000000     0.871140000000     0.246220000000     0          
Zr1      Zr     0.272080000000     0.792830000000     0.207170000000     0          
O2       O      0.253200000000     0.828300000000     0.171700000000     0          
O4       O      0.306000000000     0.758400000000     0.241600000000     0          
N1       N      0.500000000000     0.948130000000     0.249800000000     0          
O1       O      0.686030000000     0.171800000000     0.222590000000     0          
C3       C      0.635960000000     0.121100000000     0.220500000000     0          
H1       H      0.649830000000     0.125070000000     0.200400000000     0          
C4       C      0.611060000000     0.095800000000     0.220300000000     0          
H2       H      0.607710000000     0.081970000000     0.200160000000     0          
C7       C      0.528380000000     0.073180000000     0.248700000000     0          
C8       C      0.517490000000     0.109030000000     0.247100000000     0          
H3       H      0.532210000000     0.128860000000     0.246220000000     0          
Zr1      Zr     0.727920000000     0.207170000000     0.207170000000     0          
O2       O      0.746800000000     0.171700000000     0.171700000000     0          
O4       O      0.694000000000     0.241600000000     0.241600000000     0          
N1       N      0.500000000000     0.051870000000     0.249800000000     0          
O1       O      0.777410000000     0.828200000000     0.686030000000     0          
C3       C      0.779500000000     0.878900000000     0.635960000000     0          
H1       H      0.799600000000     0.874930000000     0.649830000000     0          
C4       C      0.779700000000     0.904200000000     0.611060000000     0          
H2       H      0.799840000000     0.918030000000     0.607710000000     0          
C7       C      0.751300000000     0.926820000000     0.528380000000     0          
C8       C      0.752900000000     0.890970000000     0.517490000000     0          
H3       H      0.753780000000     0.871140000000     0.532210000000     0          
O1       O      0.171800000000     0.777410000000     0.686030000000     0          
C3       C      0.121100000000     0.779500000000     0.635960000000     0          
H1       H      0.125070000000     0.799600000000     0.649830000000     0          
C4       C      0.095800000000     0.779700000000     0.611060000000     0          
H2       H      0.081970000000     0.799840000000     0.607710000000     0          
C7       C      0.073180000000     0.751300000000     0.528380000000     0          
C8       C      0.109030000000     0.752900000000     0.517490000000     0          
H3       H      0.128860000000     0.753780000000     0.532210000000     0          
O1       O      0.222590000000     0.171800000000     0.686030000000     0          
C3       C      0.220500000000     0.121100000000     0.635960000000     0          
H1       H      0.200400000000     0.125070000000     0.649830000000     0          
C4       C      0.220300000000     0.095800000000     0.611060000000     0          
H2       H      0.200160000000     0.081970000000     0.607710000000     0          
C7       C      0.248700000000     0.073180000000     0.528380000000     0          
C8       C      0.247100000000     0.109030000000     0.517490000000     0          
H3       H      0.246220000000     0.128860000000     0.532210000000     0          
O1       O      0.828200000000     0.222590000000     0.686030000000     0          
C3       C      0.878900000000     0.220500000000     0.635960000000     0          
H1       H      0.874930000000     0.200400000000     0.649830000000     0          
C4       C      0.904200000000     0.220300000000     0.611060000000     0          
H2       H      0.918030000000     0.200160000000     0.607710000000     0          
C7       C      0.926820000000     0.248700000000     0.528380000000     0          
C8       C      0.890970000000     0.247100000000     0.517490000000     0          
H3       H      0.871140000000     0.246220000000     0.532210000000     0          
O1       O      0.777410000000     0.171800000000     0.313970000000     0          
C3       C      0.779500000000     0.121100000000     0.364040000000     0          
H1       H      0.799600000000     0.125070000000     0.350170000000     0          
C4       C      0.779700000000     0.095800000000     0.388940000000     0          
H2       H      0.799840000000     0.081970000000     0.392290000000     0          
C7       C      0.751300000000     0.073180000000     0.471620000000     0          
C8       C      0.752900000000     0.109030000000     0.482510000000     0          
H3       H      0.753780000000     0.128860000000     0.467790000000     0          
O1       O      0.828200000000     0.777410000000     0.313970000000     0          
C3       C      0.878900000000     0.779500000000     0.364040000000     0          
H1       H      0.874930000000     0.799600000000     0.350170000000     0          
C4       C      0.904200000000     0.779700000000     0.388940000000     0          
H2       H      0.918030000000     0.799840000000     0.392290000000     0          
C7       C      0.926820000000     0.751300000000     0.471620000000     0          
C8       C      0.890970000000     0.752900000000     0.482510000000     0          
H3       H      0.871140000000     0.753780000000     0.467790000000     0          
O1       O      0.222590000000     0.828200000000     0.313970000000     0          
C3       C      0.220500000000     0.878900000000     0.364040000000     0          
H1       H      0.200400000000     0.874930000000     0.350170000000     0          
C4       C      0.220300000000     0.904200000000     0.388940000000     0          
H2       H      0.200160000000     0.918030000000     0.392290000000     0          
C7       C      0.248700000000     0.926820000000     0.471620000000     0          
C8       C      0.247100000000     0.890970000000     0.482510000000     0          
H3       H      0.246220000000     0.871140000000     0.467790000000     0          
O1       O      0.171800000000     0.222590000000     0.313970000000     0          
C3       C      0.121100000000     0.220500000000     0.364040000000     0          
H1       H      0.125070000000     0.200400000000     0.350170000000     0          
C4       C      0.095800000000     0.220300000000     0.388940000000     0          
H2       H      0.081970000000     0.200160000000     0.392290000000     0          
C7       C      0.073180000000     0.248700000000     0.471620000000     0          
C8       C      0.109030000000     0.247100000000     0.482510000000     0          
H3       H      0.128860000000     0.246220000000     0.467790000000     0          
O1       O      0.686030000000     0.777410000000     0.828200000000     0          
C3       C      0.635960000000     0.779500000000     0.878900000000     0          
H1       H      0.649830000000     0.799600000000     0.874930000000     0          
C4       C      0.611060000000     0.779700000000     0.904200000000     0          
H2       H      0.607710000000     0.799840000000     0.918030000000     0          
C7       C      0.528380000000     0.751300000000     0.926820000000     0          
C8       C      0.517490000000     0.752900000000     0.890970000000     0          
H3       H      0.532210000000     0.753780000000     0.871140000000     0          
O1       O      0.222590000000     0.686030000000     0.828200000000     0          
C3       C      0.220500000000     0.635960000000     0.878900000000     0          
H1       H      0.200400000000     0.649830000000     0.874930000000     0          
C4       C      0.220300000000     0.611060000000     0.904200000000     0          
H2       H      0.200160000000     0.607710000000     0.918030000000     0          
C7       C      0.248700000000     0.528380000000     0.926820000000     0          
C8       C      0.247100000000     0.517490000000     0.890970000000     0          
H3       H      0.246220000000     0.532210000000     0.871140000000     0          
O1       O      0.313970000000     0.222590000000     0.828200000000     0          
C3       C      0.364040000000     0.220500000000     0.878900000000     0          
H1       H      0.350170000000     0.200400000000     0.874930000000     0          
C4       C      0.388940000000     0.220300000000     0.904200000000     0          
H2       H      0.392290000000     0.200160000000     0.918030000000     0          
C7       C      0.471620000000     0.248700000000     0.926820000000     0          
C8       C      0.482510000000     0.247100000000     0.890970000000     0          
H3       H      0.467790000000     0.246220000000     0.871140000000     0          
O1       O      0.777410000000     0.313970000000     0.828200000000     0          
C3       C      0.779500000000     0.364040000000     0.878900000000     0          
H1       H      0.799600000000     0.350170000000     0.874930000000     0          
C4       C      0.779700000000     0.388940000000     0.904200000000     0          
H2       H      0.799840000000     0.392290000000     0.918030000000     0          
C7       C      0.751300000000     0.471620000000     0.926820000000     0          
C8       C      0.752900000000     0.482510000000     0.890970000000     0          
H3       H      0.753780000000     0.467790000000     0.871140000000     0          
O1       O      0.686030000000     0.222590000000     0.171800000000     0          
C3       C      0.635960000000     0.220500000000     0.121100000000     0          
H1       H      0.649830000000     0.200400000000     0.125070000000     0          
C4       C      0.611060000000     0.220300000000     0.095800000000     0          
H2       H      0.607710000000     0.200160000000     0.081970000000     0          
C7       C      0.528380000000     0.248700000000     0.073180000000     0          
C8       C      0.517490000000     0.247100000000     0.109030000000     0          
H3       H      0.532210000000     0.246220000000     0.128860000000     0          
O1       O      0.777410000000     0.686030000000     0.171800000000     0          
C3       C      0.779500000000     0.635960000000     0.121100000000     0          
H1       H      0.799600000000     0.649830000000     0.125070000000     0          
C4       C      0.779700000000     0.611060000000     0.095800000000     0          
H2       H      0.799840000000     0.607710000000     0.081970000000     0          
C7       C      0.751300000000     0.528380000000     0.073180000000     0          
C8       C      0.752900000000     0.517490000000     0.109030000000     0          
H3       H      0.753780000000     0.532210000000     0.128860000000     0          
O1       O      0.313970000000     0.777410000000     0.171800000000     0          
C3       C      0.364040000000     0.779500000000     0.121100000000     0          
H1       H      0.350170000000     0.799600000000     0.125070000000     0          
C4       C      0.388940000000     0.779700000000     0.095800000000     0          
H2       H      0.392290000000     0.799840000000     0.081970000000     0          
C7       C      0.471620000000     0.751300000000     0.073180000000     0          
C8       C      0.482510000000     0.752900000000     0.109030000000     0          
H3       H      0.467790000000     0.753780000000     0.128860000000     0          
O1       O      0.222590000000     0.313970000000     0.171800000000     0          
C3       C      0.220500000000     0.364040000000     0.121100000000     0          
H1       H      0.200400000000     0.350170000000     0.125070000000     0          
C4       C      0.220300000000     0.388940000000     0.095800000000     0          
H2       H      0.200160000000     0.392290000000     0.081970000000     0          
C7       C      0.248700000000     0.471620000000     0.073180000000     0          
C8       C      0.247100000000     0.482510000000     0.109030000000     0          
H3       H      0.246220000000     0.467790000000     0.128860000000     0          
O1       O      0.828200000000     0.686030000000     0.777410000000     0          
C3       C      0.878900000000     0.635960000000     0.779500000000     0          
H1       H      0.874930000000     0.649830000000     0.799600000000     0          
C4       C      0.904200000000     0.611060000000     0.779700000000     0          
H2       H      0.918030000000     0.607710000000     0.799840000000     0          
C7       C      0.926820000000     0.528380000000     0.751300000000     0          
C8       C      0.890970000000     0.517490000000     0.752900000000     0          
H3       H      0.871140000000     0.532210000000     0.753780000000     0          
O1       O      0.828200000000     0.313970000000     0.222590000000     0          
C3       C      0.878900000000     0.364040000000     0.220500000000     0          
H1       H      0.874930000000     0.350170000000     0.200400000000     0          
C4       C      0.904200000000     0.388940000000     0.220300000000     0          
H2       H      0.918030000000     0.392290000000     0.200160000000     0          
C7       C      0.926820000000     0.471620000000     0.248700000000     0          
C8       C      0.890970000000     0.482510000000     0.247100000000     0          
H3       H      0.871140000000     0.467790000000     0.246220000000     0          
O1       O      0.686030000000     0.828200000000     0.222590000000     0          
C3       C      0.635960000000     0.878900000000     0.220500000000     0          
H1       H      0.649830000000     0.874930000000     0.200400000000     0          
C4       C      0.611060000000     0.904200000000     0.220300000000     0          
H2       H      0.607710000000     0.918030000000     0.200160000000     0          
C7       C      0.528380000000     0.926820000000     0.248700000000     0          
C8       C      0.517490000000     0.890970000000     0.247100000000     0          
H3       H      0.532210000000     0.871140000000     0.246220000000     0          
O1       O      0.171800000000     0.686030000000     0.222590000000     0          
C3       C      0.121100000000     0.635960000000     0.220500000000     0          
H1       H      0.125070000000     0.649830000000     0.200400000000     0          
C4       C      0.095800000000     0.611060000000     0.220300000000     0          
H2       H      0.081970000000     0.607710000000     0.200160000000     0          
C7       C      0.073180000000     0.528380000000     0.248700000000     0          
C8       C      0.109030000000     0.517490000000     0.247100000000     0          
H3       H      0.128860000000     0.532210000000     0.246220000000     0          
O1       O      0.313970000000     0.171800000000     0.222590000000     0          
C3       C      0.364040000000     0.121100000000     0.220500000000     0          
H1       H      0.350170000000     0.125070000000     0.200400000000     0          
C4       C      0.388940000000     0.095800000000     0.220300000000     0          
H2       H      0.392290000000     0.081970000000     0.200160000000     0          
C7       C      0.471620000000     0.073180000000     0.248700000000     0          
C8       C      0.482510000000     0.109030000000     0.247100000000     0          
H3       H      0.467790000000     0.128860000000     0.246220000000     0          
O1       O      0.171800000000     0.313970000000     0.777410000000     0          
C3       C      0.121100000000     0.364040000000     0.779500000000     0          
H1       H      0.125070000000     0.350170000000     0.799600000000     0          
C4       C      0.095800000000     0.388940000000     0.779700000000     0          
H2       H      0.081970000000     0.392290000000     0.799840000000     0          
C7       C      0.073180000000     0.471620000000     0.751300000000     0          
C8       C      0.109030000000     0.482510000000     0.752900000000     0          
H3       H      0.128860000000     0.467790000000     0.753780000000     0          
O1       O      0.686030000000     0.171800000000     0.777410000000     0          
C3       C      0.635960000000     0.121100000000     0.779500000000     0          
H1       H      0.649830000000     0.125070000000     0.799600000000     0          
C4       C      0.611060000000     0.095800000000     0.779700000000     0          
H2       H      0.607710000000     0.081970000000     0.799840000000     0          
C7       C      0.528380000000     0.073180000000     0.751300000000     0          
C8       C      0.517490000000     0.109030000000     0.752900000000     0          
H3       H      0.532210000000     0.128860000000     0.753780000000     0          
O1       O      0.313970000000     0.828200000000     0.777410000000     0          
C3       C      0.364040000000     0.878900000000     0.779500000000     0          
H1       H      0.350170000000     0.874930000000     0.799600000000     0          
C4       C      0.388940000000     0.904200000000     0.779700000000     0          
H2       H      0.392290000000     0.918030000000     0.799840000000     0          
C7       C      0.471620000000     0.926820000000     0.751300000000     0          
C8       C      0.482510000000     0.890970000000     0.752900000000     0          
H3       H      0.467790000000     0.871140000000     0.753780000000     0          


