data_BIZNOQ

_audit_creation_method RASPA-1.0
_audit_creation_date 2020-11-2
_audit_author_name 'Rocio Bueno-Perez'

_cell_length_a    39.446
_cell_length_b    39.446
_cell_length_c    16.4166
_cell_angle_alpha 90
_cell_angle_beta  90
_cell_angle_gamma 120
_cell_volume      22121.8

_symmetry_cell_setting          triclinic
_symmetry_space_group_name_Hall 'P 1'
_symmetry_space_group_name_H-M  'P 1'
_symmetry_Int_Tables_number     1

_symmetry_equiv_pos_as_xyz 'x,y,z'

loop_
_atom_site_label
_atom_site_type_symbol
_atom_site_fract_x
_atom_site_fract_y
_atom_site_fract_z
_atom_site_charge
C1       C      0.906600000000     0.508700000000     0.365100000000     0          
C2       C      0.875200000000     0.508500000000     0.315600000000     0          
C3       C      0.885000000000     0.538000000000     0.259300000000     0          
H4       H      0.911540000000     0.558180000000     0.253610000000     0          
C5       C      0.856200000000     0.538200000000     0.210700000000     0          
H6       H      0.862950000000     0.558000000000     0.170650000000     0          
C7       C      0.817000000000     0.508900000000     0.221600000000     0          
C8       C      0.807900000000     0.481000000000     0.278800000000     0          
H9       H      0.781370000000     0.461120000000     0.286020000000     0          
C10      C      0.836600000000     0.481000000000     0.327000000000     0          
H11      H      0.829590000000     0.461720000000     0.368290000000     0          
C12      C      0.785300000000     0.508700000000     0.172200000000     0          
C13      C      0.785200000000     0.509100000000     0.087400000000     0          
C14      C      0.815200000000     0.506200000000     0.041600000000     0          
H15      H      0.835140000000     0.504360000000     0.070020000000     0          
O16      O      0.895990000000     0.482210000000     0.416400000000     0          
O17      O      0.941830000000     0.534100000000     0.349500000000     0          
O18      O      0.949100000000     0.480400000000     0.797000000000     0          
C19      C      0.491300000000     0.397900000000     0.365100000000     0          
C20      C      0.491500000000     0.366700000000     0.315600000000     0          
C21      C      0.462000000000     0.347000000000     0.259300000000     0          
H22      H      0.441820000000     0.353360000000     0.253610000000     0          
C23      C      0.461800000000     0.318000000000     0.210700000000     0          
H24      H      0.442000000000     0.304950000000     0.170650000000     0          
C25      C      0.491100000000     0.308100000000     0.221600000000     0          
C26      C      0.519000000000     0.326900000000     0.278800000000     0          
H27      H      0.538880000000     0.320250000000     0.286020000000     0          
C28      C      0.519000000000     0.355600000000     0.327000000000     0          
H29      H      0.538280000000     0.367870000000     0.368290000000     0          
C30      C      0.491300000000     0.276600000000     0.172200000000     0          
C31      C      0.490900000000     0.276100000000     0.087400000000     0          
C32      C      0.493800000000     0.309000000000     0.041600000000     0          
H33      H      0.495640000000     0.330780000000     0.070020000000     0          
O34      O      0.517790000000     0.413780000000     0.416400000000     0          
O35      O      0.465900000000     0.407730000000     0.349500000000     0          
O36      O      0.519600000000     0.468700000000     0.797000000000     0          
C37      C      0.602100000000     0.093400000000     0.365100000000     0          
C38      C      0.633300000000     0.124800000000     0.315600000000     0          
C39      C      0.653000000000     0.115000000000     0.259300000000     0          
H40      H      0.646640000000     0.088460000000     0.253610000000     0          
C41      C      0.682000000000     0.143800000000     0.210700000000     0          
H42      H      0.695050000000     0.137050000000     0.170650000000     0          
C43      C      0.691900000000     0.183000000000     0.221600000000     0          
C44      C      0.673100000000     0.192100000000     0.278800000000     0          
H45      H      0.679750000000     0.218630000000     0.286020000000     0          
C46      C      0.644400000000     0.163400000000     0.327000000000     0          
H47      H      0.632130000000     0.170410000000     0.368290000000     0          
C48      C      0.723400000000     0.214700000000     0.172200000000     0          
C49      C      0.723900000000     0.214800000000     0.087400000000     0          
C50      C      0.691000000000     0.184800000000     0.041600000000     0          
H51      H      0.669220000000     0.164860000000     0.070020000000     0          
O52      O      0.586220000000     0.104010000000     0.416400000000     0          
O53      O      0.592270000000     0.058170000000     0.349500000000     0          
O54      O      0.531300000000     0.050900000000     0.797000000000     0          
C55      C      0.093400000000     0.491300000000     0.365100000000     0          
C56      C      0.124800000000     0.491500000000     0.315600000000     0          
C57      C      0.115000000000     0.462000000000     0.259300000000     0          
H58      H      0.088460000000     0.441820000000     0.253610000000     0          
C59      C      0.143800000000     0.461800000000     0.210700000000     0          
H60      H      0.137050000000     0.442000000000     0.170650000000     0          
C61      C      0.183000000000     0.491100000000     0.221600000000     0          
C62      C      0.192100000000     0.519000000000     0.278800000000     0          
H63      H      0.218630000000     0.538880000000     0.286020000000     0          
C64      C      0.163400000000     0.519000000000     0.327000000000     0          
H65      H      0.170410000000     0.538280000000     0.368290000000     0          
C66      C      0.214700000000     0.491300000000     0.172200000000     0          
C67      C      0.214800000000     0.490900000000     0.087400000000     0          
C68      C      0.184800000000     0.493800000000     0.041600000000     0          
H69      H      0.164860000000     0.495640000000     0.070020000000     0          
O70      O      0.104010000000     0.517790000000     0.416400000000     0          
O71      O      0.058170000000     0.465900000000     0.349500000000     0          
O72      O      0.050900000000     0.519600000000     0.797000000000     0          
C73      C      0.508700000000     0.602100000000     0.365100000000     0          
C74      C      0.508500000000     0.633300000000     0.315600000000     0          
C75      C      0.538000000000     0.653000000000     0.259300000000     0          
H76      H      0.558180000000     0.646640000000     0.253610000000     0          
C77      C      0.538200000000     0.682000000000     0.210700000000     0          
H78      H      0.558000000000     0.695050000000     0.170650000000     0          
C79      C      0.508900000000     0.691900000000     0.221600000000     0          
C80      C      0.481000000000     0.673100000000     0.278800000000     0          
H81      H      0.461120000000     0.679750000000     0.286020000000     0          
C82      C      0.481000000000     0.644400000000     0.327000000000     0          
H83      H      0.461720000000     0.632130000000     0.368290000000     0          
C84      C      0.508700000000     0.723400000000     0.172200000000     0          
C85      C      0.509100000000     0.723900000000     0.087400000000     0          
C86      C      0.506200000000     0.691000000000     0.041600000000     0          
H87      H      0.504360000000     0.669220000000     0.070020000000     0          
O88      O      0.482210000000     0.586220000000     0.416400000000     0          
O89      O      0.534100000000     0.592270000000     0.349500000000     0          
O90      O      0.480400000000     0.531300000000     0.797000000000     0          
C91      C      0.397900000000     0.906600000000     0.365100000000     0          
C92      C      0.366700000000     0.875200000000     0.315600000000     0          
C93      C      0.347000000000     0.885000000000     0.259300000000     0          
H94      H      0.353360000000     0.911540000000     0.253610000000     0          
C95      C      0.318000000000     0.856200000000     0.210700000000     0          
H96      H      0.304950000000     0.862950000000     0.170650000000     0          
C97      C      0.308100000000     0.817000000000     0.221600000000     0          
C98      C      0.326900000000     0.807900000000     0.278800000000     0          
H99      H      0.320250000000     0.781370000000     0.286020000000     0          
C100     C      0.355600000000     0.836600000000     0.327000000000     0          
H101     H      0.367870000000     0.829590000000     0.368290000000     0          
C102     C      0.276600000000     0.785300000000     0.172200000000     0          
C103     C      0.276100000000     0.785200000000     0.087400000000     0          
C104     C      0.309000000000     0.815200000000     0.041600000000     0          
H105     H      0.330780000000     0.835140000000     0.070020000000     0          
O106     O      0.413780000000     0.895990000000     0.416400000000     0          
O107     O      0.407730000000     0.941830000000     0.349500000000     0          
O108     O      0.468700000000     0.949100000000     0.797000000000     0          
C109     C      0.508700000000     0.906600000000     0.634900000000     0          
C110     C      0.508500000000     0.875200000000     0.684400000000     0          
C111     C      0.538000000000     0.885000000000     0.740700000000     0          
H112     H      0.558180000000     0.911540000000     0.746390000000     0          
C113     C      0.538200000000     0.856200000000     0.789300000000     0          
H114     H      0.558000000000     0.862950000000     0.829350000000     0          
C115     C      0.508900000000     0.817000000000     0.778400000000     0          
C116     C      0.481000000000     0.807900000000     0.721200000000     0          
H117     H      0.461120000000     0.781370000000     0.713980000000     0          
C118     C      0.481000000000     0.836600000000     0.673000000000     0          
H119     H      0.461720000000     0.829590000000     0.631710000000     0          
C120     C      0.508700000000     0.785300000000     0.827800000000     0          
C121     C      0.509100000000     0.785200000000     0.912600000000     0          
C122     C      0.506200000000     0.815200000000     0.958400000000     0          
H123     H      0.504360000000     0.835140000000     0.929980000000     0          
O124     O      0.482210000000     0.895990000000     0.583600000000     0          
O125     O      0.534100000000     0.941830000000     0.650500000000     0          
O126     O      0.480400000000     0.949100000000     0.203000000000     0          
C127     C      0.397900000000     0.491300000000     0.634900000000     0          
C128     C      0.366700000000     0.491500000000     0.684400000000     0          
C129     C      0.347000000000     0.462000000000     0.740700000000     0          
H130     H      0.353360000000     0.441820000000     0.746390000000     0          
C131     C      0.318000000000     0.461800000000     0.789300000000     0          
H132     H      0.304950000000     0.442000000000     0.829350000000     0          
C133     C      0.308100000000     0.491100000000     0.778400000000     0          
C134     C      0.326900000000     0.519000000000     0.721200000000     0          
H135     H      0.320250000000     0.538880000000     0.713980000000     0          
C136     C      0.355600000000     0.519000000000     0.673000000000     0          
H137     H      0.367870000000     0.538280000000     0.631710000000     0          
C138     C      0.276600000000     0.491300000000     0.827800000000     0          
C139     C      0.276100000000     0.490900000000     0.912600000000     0          
C140     C      0.309000000000     0.493800000000     0.958400000000     0          
H141     H      0.330780000000     0.495640000000     0.929980000000     0          
O142     O      0.413780000000     0.517790000000     0.583600000000     0          
O143     O      0.407730000000     0.465900000000     0.650500000000     0          
O144     O      0.468700000000     0.519600000000     0.203000000000     0          
C145     C      0.093400000000     0.602100000000     0.634900000000     0          
C146     C      0.124800000000     0.633300000000     0.684400000000     0          
C147     C      0.115000000000     0.653000000000     0.740700000000     0          
H148     H      0.088460000000     0.646640000000     0.746390000000     0          
C149     C      0.143800000000     0.682000000000     0.789300000000     0          
H150     H      0.137050000000     0.695050000000     0.829350000000     0          
C151     C      0.183000000000     0.691900000000     0.778400000000     0          
C152     C      0.192100000000     0.673100000000     0.721200000000     0          
H153     H      0.218630000000     0.679750000000     0.713980000000     0          
C154     C      0.163400000000     0.644400000000     0.673000000000     0          
H155     H      0.170410000000     0.632130000000     0.631710000000     0          
C156     C      0.214700000000     0.723400000000     0.827800000000     0          
C157     C      0.214800000000     0.723900000000     0.912600000000     0          
C158     C      0.184800000000     0.691000000000     0.958400000000     0          
H159     H      0.164860000000     0.669220000000     0.929980000000     0          
O160     O      0.104010000000     0.586220000000     0.583600000000     0          
O161     O      0.058170000000     0.592270000000     0.650500000000     0          
O162     O      0.050900000000     0.531300000000     0.203000000000     0          
C163     C      0.491300000000     0.093400000000     0.634900000000     0          
C164     C      0.491500000000     0.124800000000     0.684400000000     0          
C165     C      0.462000000000     0.115000000000     0.740700000000     0          
H166     H      0.441820000000     0.088460000000     0.746390000000     0          
C167     C      0.461800000000     0.143800000000     0.789300000000     0          
H168     H      0.442000000000     0.137050000000     0.829350000000     0          
C169     C      0.491100000000     0.183000000000     0.778400000000     0          
C170     C      0.519000000000     0.192100000000     0.721200000000     0          
H171     H      0.538880000000     0.218630000000     0.713980000000     0          
C172     C      0.519000000000     0.163400000000     0.673000000000     0          
H173     H      0.538280000000     0.170410000000     0.631710000000     0          
C174     C      0.491300000000     0.214700000000     0.827800000000     0          
C175     C      0.490900000000     0.214800000000     0.912600000000     0          
C176     C      0.493800000000     0.184800000000     0.958400000000     0          
H177     H      0.495640000000     0.164860000000     0.929980000000     0          
O178     O      0.517790000000     0.104010000000     0.583600000000     0          
O179     O      0.465900000000     0.058170000000     0.650500000000     0          
O180     O      0.519600000000     0.050900000000     0.203000000000     0          
C181     C      0.602100000000     0.508700000000     0.634900000000     0          
C182     C      0.633300000000     0.508500000000     0.684400000000     0          
C183     C      0.653000000000     0.538000000000     0.740700000000     0          
H184     H      0.646640000000     0.558180000000     0.746390000000     0          
C185     C      0.682000000000     0.538200000000     0.789300000000     0          
H186     H      0.695050000000     0.558000000000     0.829350000000     0          
C187     C      0.691900000000     0.508900000000     0.778400000000     0          
C188     C      0.673100000000     0.481000000000     0.721200000000     0          
H189     H      0.679750000000     0.461120000000     0.713980000000     0          
C190     C      0.644400000000     0.481000000000     0.673000000000     0          
H191     H      0.632130000000     0.461720000000     0.631710000000     0          
C192     C      0.723400000000     0.508700000000     0.827800000000     0          
C193     C      0.723900000000     0.509100000000     0.912600000000     0          
C194     C      0.691000000000     0.506200000000     0.958400000000     0          
H195     H      0.669220000000     0.504360000000     0.929980000000     0          
O196     O      0.586220000000     0.482210000000     0.583600000000     0          
O197     O      0.592270000000     0.534100000000     0.650500000000     0          
O198     O      0.531300000000     0.480400000000     0.203000000000     0          
C199     C      0.906600000000     0.397900000000     0.634900000000     0          
C200     C      0.875200000000     0.366700000000     0.684400000000     0          
C201     C      0.885000000000     0.347000000000     0.740700000000     0          
H202     H      0.911540000000     0.353360000000     0.746390000000     0          
C203     C      0.856200000000     0.318000000000     0.789300000000     0          
H204     H      0.862950000000     0.304950000000     0.829350000000     0          
C205     C      0.817000000000     0.308100000000     0.778400000000     0          
C206     C      0.807900000000     0.326900000000     0.721200000000     0          
H207     H      0.781370000000     0.320250000000     0.713980000000     0          
C208     C      0.836600000000     0.355600000000     0.673000000000     0          
H209     H      0.829590000000     0.367870000000     0.631710000000     0          
C210     C      0.785300000000     0.276600000000     0.827800000000     0          
C211     C      0.785200000000     0.276100000000     0.912600000000     0          
C212     C      0.815200000000     0.309000000000     0.958400000000     0          
H213     H      0.835140000000     0.330780000000     0.929980000000     0          
O214     O      0.895990000000     0.413780000000     0.583600000000     0          
O215     O      0.941830000000     0.407730000000     0.650500000000     0          
O216     O      0.949100000000     0.468700000000     0.203000000000     0          
C217     C      0.093400000000     0.491300000000     0.634900000000     0          
C218     C      0.124800000000     0.491500000000     0.684400000000     0          
C219     C      0.115000000000     0.462000000000     0.740700000000     0          
H220     H      0.088460000000     0.441820000000     0.746390000000     0          
C221     C      0.143800000000     0.461800000000     0.789300000000     0          
H222     H      0.137050000000     0.442000000000     0.829350000000     0          
C223     C      0.183000000000     0.491100000000     0.778400000000     0          
C224     C      0.192100000000     0.519000000000     0.721200000000     0          
H225     H      0.218630000000     0.538880000000     0.713980000000     0          
C226     C      0.163400000000     0.519000000000     0.673000000000     0          
H227     H      0.170410000000     0.538280000000     0.631710000000     0          
C228     C      0.214700000000     0.491300000000     0.827800000000     0          
C229     C      0.214800000000     0.490900000000     0.912600000000     0          
C230     C      0.184800000000     0.493800000000     0.958400000000     0          
H231     H      0.164860000000     0.495640000000     0.929980000000     0          
C232     C      0.026800000000     0.483600000000     0.200000000000     0          
C233     C      0.038100000000     0.457000000000     0.141000000000     0          
C234     C      0.062000000000     0.475700000000     0.074000000000     0          
H235     H      0.070930000000     0.502580000000     0.064410000000     0          
C236     C      0.072700000000     0.455000000000     0.022000000000     0          
H237     H      0.089040000000     0.467740000000     0.976260000000     0          
C238     C      0.059700000000     0.415600000000     0.036000000000     0          
C239     C      0.035800000000     0.396900000000     0.103000000000     0          
H240     H      0.026870000000     0.370020000000     0.112560000000     0          
C241     C      0.025100000000     0.417600000000     0.155000000000     0          
H242     H      0.008760000000     0.404860000000     0.200710000000     0          
F243     F      0.070000000000     0.395800000000     0.986000000000     0          
O244     O      0.104010000000     0.517790000000     0.583600000000     0          
O245     O      0.058170000000     0.465900000000     0.650500000000     0          
C246     C      0.508700000000     0.602100000000     0.634900000000     0          
C247     C      0.508500000000     0.633300000000     0.684400000000     0          
C248     C      0.538000000000     0.653000000000     0.740700000000     0          
H249     H      0.558180000000     0.646640000000     0.746390000000     0          
C250     C      0.538200000000     0.682000000000     0.789300000000     0          
H251     H      0.558000000000     0.695050000000     0.829350000000     0          
C252     C      0.508900000000     0.691900000000     0.778400000000     0          
C253     C      0.481000000000     0.673100000000     0.721200000000     0          
H254     H      0.461120000000     0.679750000000     0.713980000000     0          
C255     C      0.481000000000     0.644400000000     0.673000000000     0          
H256     H      0.461720000000     0.632130000000     0.631710000000     0          
C257     C      0.508700000000     0.723400000000     0.827800000000     0          
C258     C      0.509100000000     0.723900000000     0.912600000000     0          
C259     C      0.506200000000     0.691000000000     0.958400000000     0          
H260     H      0.504360000000     0.669220000000     0.929980000000     0          
C261     C      0.516400000000     0.543200000000     0.200000000000     0          
C262     C      0.543000000000     0.581100000000     0.141000000000     0          
C263     C      0.524300000000     0.586300000000     0.074000000000     0          
H264     H      0.497420000000     0.568350000000     0.064410000000     0          
C265     C      0.545000000000     0.617700000000     0.022000000000     0          
H266     H      0.532260000000     0.621300000000     0.976260000000     0          
C267     C      0.584400000000     0.644100000000     0.036000000000     0          
C268     C      0.603100000000     0.638900000000     0.103000000000     0          
H269     H      0.629980000000     0.656850000000     0.112560000000     0          
C270     C      0.582400000000     0.607500000000     0.155000000000     0          
H271     H      0.595140000000     0.603900000000     0.200710000000     0          
F272     F      0.604200000000     0.674200000000     0.986000000000     0          
O273     O      0.482210000000     0.586220000000     0.583600000000     0          
O274     O      0.534100000000     0.592270000000     0.650500000000     0          
C275     C      0.397900000000     0.906600000000     0.634900000000     0          
C276     C      0.366700000000     0.875200000000     0.684400000000     0          
C277     C      0.347000000000     0.885000000000     0.740700000000     0          
H278     H      0.353360000000     0.911540000000     0.746390000000     0          
C279     C      0.318000000000     0.856200000000     0.789300000000     0          
H280     H      0.304950000000     0.862950000000     0.829350000000     0          
C281     C      0.308100000000     0.817000000000     0.778400000000     0          
C282     C      0.326900000000     0.807900000000     0.721200000000     0          
H283     H      0.320250000000     0.781370000000     0.713980000000     0          
C284     C      0.355600000000     0.836600000000     0.673000000000     0          
H285     H      0.367870000000     0.829590000000     0.631710000000     0          
C286     C      0.276600000000     0.785300000000     0.827800000000     0          
C287     C      0.276100000000     0.785200000000     0.912600000000     0          
C288     C      0.309000000000     0.815200000000     0.958400000000     0          
H289     H      0.330780000000     0.835140000000     0.929980000000     0          
C290     C      0.456800000000     0.973200000000     0.200000000000     0          
C291     C      0.418900000000     0.961900000000     0.141000000000     0          
C292     C      0.413700000000     0.938000000000     0.074000000000     0          
H293     H      0.431650000000     0.929070000000     0.064410000000     0          
C294     C      0.382300000000     0.927300000000     0.022000000000     0          
H295     H      0.378700000000     0.910960000000     0.976260000000     0          
C296     C      0.355900000000     0.940300000000     0.036000000000     0          
C297     C      0.361100000000     0.964200000000     0.103000000000     0          
H298     H      0.343150000000     0.973130000000     0.112560000000     0          
C299     C      0.392500000000     0.974900000000     0.155000000000     0          
H300     H      0.396100000000     0.991240000000     0.200710000000     0          
F301     F      0.325800000000     0.930000000000     0.986000000000     0          
O302     O      0.413780000000     0.895990000000     0.583600000000     0          
O303     O      0.407730000000     0.941830000000     0.650500000000     0          
C304     C      0.906600000000     0.508700000000     0.634900000000     0          
C305     C      0.875200000000     0.508500000000     0.684400000000     0          
C306     C      0.885000000000     0.538000000000     0.740700000000     0          
H307     H      0.911540000000     0.558180000000     0.746390000000     0          
C308     C      0.856200000000     0.538200000000     0.789300000000     0          
H309     H      0.862950000000     0.558000000000     0.829350000000     0          
C310     C      0.817000000000     0.508900000000     0.778400000000     0          
C311     C      0.807900000000     0.481000000000     0.721200000000     0          
H312     H      0.781370000000     0.461120000000     0.713980000000     0          
C313     C      0.836600000000     0.481000000000     0.673000000000     0          
H314     H      0.829590000000     0.461720000000     0.631710000000     0          
C315     C      0.785300000000     0.508700000000     0.827800000000     0          
C316     C      0.785200000000     0.509100000000     0.912600000000     0          
C317     C      0.815200000000     0.506200000000     0.958400000000     0          
H318     H      0.835140000000     0.504360000000     0.929980000000     0          
C319     C      0.973200000000     0.516400000000     0.200000000000     0          
C320     C      0.961900000000     0.543000000000     0.141000000000     0          
C321     C      0.938000000000     0.524300000000     0.074000000000     0          
H322     H      0.929070000000     0.497420000000     0.064410000000     0          
C323     C      0.927300000000     0.545000000000     0.022000000000     0          
H324     H      0.910960000000     0.532260000000     0.976260000000     0          
C325     C      0.940300000000     0.584400000000     0.036000000000     0          
C326     C      0.964200000000     0.603100000000     0.103000000000     0          
H327     H      0.973130000000     0.629980000000     0.112560000000     0          
C328     C      0.974900000000     0.582400000000     0.155000000000     0          
H329     H      0.991240000000     0.595140000000     0.200710000000     0          
F330     F      0.930000000000     0.604200000000     0.986000000000     0          
O331     O      0.895990000000     0.482210000000     0.583600000000     0          
O332     O      0.941830000000     0.534100000000     0.650500000000     0          
C333     C      0.491300000000     0.397900000000     0.634900000000     0          
C334     C      0.491500000000     0.366700000000     0.684400000000     0          
C335     C      0.462000000000     0.347000000000     0.740700000000     0          
H336     H      0.441820000000     0.353360000000     0.746390000000     0          
C337     C      0.461800000000     0.318000000000     0.789300000000     0          
H338     H      0.442000000000     0.304950000000     0.829350000000     0          
C339     C      0.491100000000     0.308100000000     0.778400000000     0          
C340     C      0.519000000000     0.326900000000     0.721200000000     0          
H341     H      0.538880000000     0.320250000000     0.713980000000     0          
C342     C      0.519000000000     0.355600000000     0.673000000000     0          
H343     H      0.538280000000     0.367870000000     0.631710000000     0          
C344     C      0.491300000000     0.276600000000     0.827800000000     0          
C345     C      0.490900000000     0.276100000000     0.912600000000     0          
C346     C      0.493800000000     0.309000000000     0.958400000000     0          
H347     H      0.495640000000     0.330780000000     0.929980000000     0          
C348     C      0.483600000000     0.456800000000     0.200000000000     0          
C349     C      0.457000000000     0.418900000000     0.141000000000     0          
C350     C      0.475700000000     0.413700000000     0.074000000000     0          
H351     H      0.502580000000     0.431650000000     0.064410000000     0          
C352     C      0.455000000000     0.382300000000     0.022000000000     0          
H353     H      0.467740000000     0.378700000000     0.976260000000     0          
C354     C      0.415600000000     0.355900000000     0.036000000000     0          
C355     C      0.396900000000     0.361100000000     0.103000000000     0          
H356     H      0.370020000000     0.343150000000     0.112560000000     0          
C357     C      0.417600000000     0.392500000000     0.155000000000     0          
H358     H      0.404860000000     0.396100000000     0.200710000000     0          
F359     F      0.395800000000     0.325800000000     0.986000000000     0          
O360     O      0.517790000000     0.413780000000     0.583600000000     0          
O361     O      0.465900000000     0.407730000000     0.650500000000     0          
C362     C      0.602100000000     0.093400000000     0.634900000000     0          
C363     C      0.633300000000     0.124800000000     0.684400000000     0          
C364     C      0.653000000000     0.115000000000     0.740700000000     0          
H365     H      0.646640000000     0.088460000000     0.746390000000     0          
C366     C      0.682000000000     0.143800000000     0.789300000000     0          
H367     H      0.695050000000     0.137050000000     0.829350000000     0          
C368     C      0.691900000000     0.183000000000     0.778400000000     0          
C369     C      0.673100000000     0.192100000000     0.721200000000     0          
H370     H      0.679750000000     0.218630000000     0.713980000000     0          
C371     C      0.644400000000     0.163400000000     0.673000000000     0          
H372     H      0.632130000000     0.170410000000     0.631710000000     0          
C373     C      0.723400000000     0.214700000000     0.827800000000     0          
C374     C      0.723900000000     0.214800000000     0.912600000000     0          
C375     C      0.691000000000     0.184800000000     0.958400000000     0          
H376     H      0.669220000000     0.164860000000     0.929980000000     0          
C377     C      0.543200000000     0.026800000000     0.200000000000     0          
C378     C      0.581100000000     0.038100000000     0.141000000000     0          
C379     C      0.586300000000     0.062000000000     0.074000000000     0          
H380     H      0.568350000000     0.070930000000     0.064410000000     0          
C381     C      0.617700000000     0.072700000000     0.022000000000     0          
H382     H      0.621300000000     0.089040000000     0.976260000000     0          
C383     C      0.644100000000     0.059700000000     0.036000000000     0          
C384     C      0.638900000000     0.035800000000     0.103000000000     0          
H385     H      0.656850000000     0.026870000000     0.112560000000     0          
C386     C      0.607500000000     0.025100000000     0.155000000000     0          
H387     H      0.603900000000     0.008760000000     0.200710000000     0          
F388     F      0.674200000000     0.070000000000     0.986000000000     0          
O389     O      0.586220000000     0.104010000000     0.583600000000     0          
O390     O      0.592270000000     0.058170000000     0.650500000000     0          
C391     C      0.491300000000     0.093400000000     0.365100000000     0          
C392     C      0.491500000000     0.124800000000     0.315600000000     0          
C393     C      0.462000000000     0.115000000000     0.259300000000     0          
H394     H      0.441820000000     0.088460000000     0.253610000000     0          
C395     C      0.461800000000     0.143800000000     0.210700000000     0          
H396     H      0.442000000000     0.137050000000     0.170650000000     0          
C397     C      0.491100000000     0.183000000000     0.221600000000     0          
C398     C      0.519000000000     0.192100000000     0.278800000000     0          
H399     H      0.538880000000     0.218630000000     0.286020000000     0          
C400     C      0.519000000000     0.163400000000     0.327000000000     0          
H401     H      0.538280000000     0.170410000000     0.368290000000     0          
C402     C      0.491300000000     0.214700000000     0.172200000000     0          
C403     C      0.490900000000     0.214800000000     0.087400000000     0          
C404     C      0.493800000000     0.184800000000     0.041600000000     0          
H405     H      0.495640000000     0.164860000000     0.070020000000     0          
C406     C      0.483600000000     0.026800000000     0.800000000000     0          
C407     C      0.457000000000     0.038100000000     0.859000000000     0          
C408     C      0.475700000000     0.062000000000     0.926000000000     0          
H409     H      0.502580000000     0.070930000000     0.935590000000     0          
C410     C      0.455000000000     0.072700000000     0.978000000000     0          
H411     H      0.467740000000     0.089040000000     0.023740000000     0          
C412     C      0.415600000000     0.059700000000     0.964000000000     0          
C413     C      0.396900000000     0.035800000000     0.897000000000     0          
H414     H      0.370020000000     0.026870000000     0.887440000000     0          
C415     C      0.417600000000     0.025100000000     0.845000000000     0          
H416     H      0.404860000000     0.008760000000     0.799290000000     0          
F417     F      0.395800000000     0.070000000000     0.014000000000     0          
O418     O      0.517790000000     0.104010000000     0.416400000000     0          
O419     O      0.465900000000     0.058170000000     0.349500000000     0          
C420     C      0.602100000000     0.508700000000     0.365100000000     0          
C421     C      0.633300000000     0.508500000000     0.315600000000     0          
C422     C      0.653000000000     0.538000000000     0.259300000000     0          
H423     H      0.646640000000     0.558180000000     0.253610000000     0          
C424     C      0.682000000000     0.538200000000     0.210700000000     0          
H425     H      0.695050000000     0.558000000000     0.170650000000     0          
C426     C      0.691900000000     0.508900000000     0.221600000000     0          
C427     C      0.673100000000     0.481000000000     0.278800000000     0          
H428     H      0.679750000000     0.461120000000     0.286020000000     0          
C429     C      0.644400000000     0.481000000000     0.327000000000     0          
H430     H      0.632130000000     0.461720000000     0.368290000000     0          
C431     C      0.723400000000     0.508700000000     0.172200000000     0          
C432     C      0.723900000000     0.509100000000     0.087400000000     0          
C433     C      0.691000000000     0.506200000000     0.041600000000     0          
H434     H      0.669220000000     0.504360000000     0.070020000000     0          
C435     C      0.543200000000     0.516400000000     0.800000000000     0          
C436     C      0.581100000000     0.543000000000     0.859000000000     0          
C437     C      0.586300000000     0.524300000000     0.926000000000     0          
H438     H      0.568350000000     0.497420000000     0.935590000000     0          
C439     C      0.617700000000     0.545000000000     0.978000000000     0          
H440     H      0.621300000000     0.532260000000     0.023740000000     0          
C441     C      0.644100000000     0.584400000000     0.964000000000     0          
C442     C      0.638900000000     0.603100000000     0.897000000000     0          
H443     H      0.656850000000     0.629980000000     0.887440000000     0          
C444     C      0.607500000000     0.582400000000     0.845000000000     0          
H445     H      0.603900000000     0.595140000000     0.799290000000     0          
F446     F      0.674200000000     0.604200000000     0.014000000000     0          
O447     O      0.586220000000     0.482210000000     0.416400000000     0          
O448     O      0.592270000000     0.534100000000     0.349500000000     0          
C449     C      0.906600000000     0.397900000000     0.365100000000     0          
C450     C      0.875200000000     0.366700000000     0.315600000000     0          
C451     C      0.885000000000     0.347000000000     0.259300000000     0          
H452     H      0.911540000000     0.353360000000     0.253610000000     0          
C453     C      0.856200000000     0.318000000000     0.210700000000     0          
H454     H      0.862950000000     0.304950000000     0.170650000000     0          
C455     C      0.817000000000     0.308100000000     0.221600000000     0          
C456     C      0.807900000000     0.326900000000     0.278800000000     0          
H457     H      0.781370000000     0.320250000000     0.286020000000     0          
C458     C      0.836600000000     0.355600000000     0.327000000000     0          
H459     H      0.829590000000     0.367870000000     0.368290000000     0          
C460     C      0.785300000000     0.276600000000     0.172200000000     0          
C461     C      0.785200000000     0.276100000000     0.087400000000     0          
C462     C      0.815200000000     0.309000000000     0.041600000000     0          
H463     H      0.835140000000     0.330780000000     0.070020000000     0          
C464     C      0.973200000000     0.456800000000     0.800000000000     0          
C465     C      0.961900000000     0.418900000000     0.859000000000     0          
C466     C      0.938000000000     0.413700000000     0.926000000000     0          
H467     H      0.929070000000     0.431650000000     0.935590000000     0          
C468     C      0.927300000000     0.382300000000     0.978000000000     0          
H469     H      0.910960000000     0.378700000000     0.023740000000     0          
C470     C      0.940300000000     0.355900000000     0.964000000000     0          
C471     C      0.964200000000     0.361100000000     0.897000000000     0          
H472     H      0.973130000000     0.343150000000     0.887440000000     0          
C473     C      0.974900000000     0.392500000000     0.845000000000     0          
H474     H      0.991240000000     0.396100000000     0.799290000000     0          
F475     F      0.930000000000     0.325800000000     0.014000000000     0          
O476     O      0.895990000000     0.413780000000     0.416400000000     0          
O477     O      0.941830000000     0.407730000000     0.349500000000     0          
C478     C      0.508700000000     0.906600000000     0.365100000000     0          
C479     C      0.508500000000     0.875200000000     0.315600000000     0          
C480     C      0.538000000000     0.885000000000     0.259300000000     0          
H481     H      0.558180000000     0.911540000000     0.253610000000     0          
C482     C      0.538200000000     0.856200000000     0.210700000000     0          
H483     H      0.558000000000     0.862950000000     0.170650000000     0          
C484     C      0.508900000000     0.817000000000     0.221600000000     0          
C485     C      0.481000000000     0.807900000000     0.278800000000     0          
H486     H      0.461120000000     0.781370000000     0.286020000000     0          
C487     C      0.481000000000     0.836600000000     0.327000000000     0          
H488     H      0.461720000000     0.829590000000     0.368290000000     0          
C489     C      0.508700000000     0.785300000000     0.172200000000     0          
C490     C      0.509100000000     0.785200000000     0.087400000000     0          
C491     C      0.506200000000     0.815200000000     0.041600000000     0          
H492     H      0.504360000000     0.835140000000     0.070020000000     0          
C493     C      0.516400000000     0.973200000000     0.800000000000     0          
C494     C      0.543000000000     0.961900000000     0.859000000000     0          
C495     C      0.524300000000     0.938000000000     0.926000000000     0          
H496     H      0.497420000000     0.929070000000     0.935590000000     0          
C497     C      0.545000000000     0.927300000000     0.978000000000     0          
H498     H      0.532260000000     0.910960000000     0.023740000000     0          
C499     C      0.584400000000     0.940300000000     0.964000000000     0          
C500     C      0.603100000000     0.964200000000     0.897000000000     0          
H501     H      0.629980000000     0.973130000000     0.887440000000     0          
C502     C      0.582400000000     0.974900000000     0.845000000000     0          
H503     H      0.595140000000     0.991240000000     0.799290000000     0          
F504     F      0.604200000000     0.930000000000     0.014000000000     0          
O505     O      0.482210000000     0.895990000000     0.416400000000     0          
O506     O      0.534100000000     0.941830000000     0.349500000000     0          
C507     C      0.397900000000     0.491300000000     0.365100000000     0          
C508     C      0.366700000000     0.491500000000     0.315600000000     0          
C509     C      0.347000000000     0.462000000000     0.259300000000     0          
H510     H      0.353360000000     0.441820000000     0.253610000000     0          
C511     C      0.318000000000     0.461800000000     0.210700000000     0          
H512     H      0.304950000000     0.442000000000     0.170650000000     0          
C513     C      0.308100000000     0.491100000000     0.221600000000     0          
C514     C      0.326900000000     0.519000000000     0.278800000000     0          
H515     H      0.320250000000     0.538880000000     0.286020000000     0          
C516     C      0.355600000000     0.519000000000     0.327000000000     0          
H517     H      0.367870000000     0.538280000000     0.368290000000     0          
C518     C      0.276600000000     0.491300000000     0.172200000000     0          
C519     C      0.276100000000     0.490900000000     0.087400000000     0          
C520     C      0.309000000000     0.493800000000     0.041600000000     0          
H521     H      0.330780000000     0.495640000000     0.070020000000     0          
C522     C      0.456800000000     0.483600000000     0.800000000000     0          
C523     C      0.418900000000     0.457000000000     0.859000000000     0          
C524     C      0.413700000000     0.475700000000     0.926000000000     0          
H525     H      0.431650000000     0.502580000000     0.935590000000     0          
C526     C      0.382300000000     0.455000000000     0.978000000000     0          
H527     H      0.378700000000     0.467740000000     0.023740000000     0          
C528     C      0.355900000000     0.415600000000     0.964000000000     0          
C529     C      0.361100000000     0.396900000000     0.897000000000     0          
H530     H      0.343150000000     0.370020000000     0.887440000000     0          
C531     C      0.392500000000     0.417600000000     0.845000000000     0          
H532     H      0.396100000000     0.404860000000     0.799290000000     0          
F533     F      0.325800000000     0.395800000000     0.014000000000     0          
O534     O      0.413780000000     0.517790000000     0.416400000000     0          
O535     O      0.407730000000     0.465900000000     0.349500000000     0          
C536     C      0.093400000000     0.602100000000     0.365100000000     0          
C537     C      0.124800000000     0.633300000000     0.315600000000     0          
C538     C      0.115000000000     0.653000000000     0.259300000000     0          
H539     H      0.088460000000     0.646640000000     0.253610000000     0          
C540     C      0.143800000000     0.682000000000     0.210700000000     0          
H541     H      0.137050000000     0.695050000000     0.170650000000     0          
C542     C      0.183000000000     0.691900000000     0.221600000000     0          
C543     C      0.192100000000     0.673100000000     0.278800000000     0          
H544     H      0.218630000000     0.679750000000     0.286020000000     0          
C545     C      0.163400000000     0.644400000000     0.327000000000     0          
H546     H      0.170410000000     0.632130000000     0.368290000000     0          
C547     C      0.214700000000     0.723400000000     0.172200000000     0          
C548     C      0.214800000000     0.723900000000     0.087400000000     0          
C549     C      0.184800000000     0.691000000000     0.041600000000     0          
H550     H      0.164860000000     0.669220000000     0.070020000000     0          
C551     C      0.026800000000     0.543200000000     0.800000000000     0          
C552     C      0.038100000000     0.581100000000     0.859000000000     0          
C553     C      0.062000000000     0.586300000000     0.926000000000     0          
H554     H      0.070930000000     0.568350000000     0.935590000000     0          
C555     C      0.072700000000     0.617700000000     0.978000000000     0          
H556     H      0.089040000000     0.621300000000     0.023740000000     0          
C557     C      0.059700000000     0.644100000000     0.964000000000     0          
C558     C      0.035800000000     0.638900000000     0.897000000000     0          
H559     H      0.026870000000     0.656850000000     0.887440000000     0          
C560     C      0.025100000000     0.607500000000     0.845000000000     0          
H561     H      0.008760000000     0.603900000000     0.799290000000     0          
F562     F      0.070000000000     0.674200000000     0.014000000000     0          
O563     O      0.104010000000     0.586220000000     0.416400000000     0          
O564     O      0.058170000000     0.592270000000     0.349500000000     0          
C565     C      0.754050000000     0.508100000000     0.210300000000     0          
H566     H      0.753650000000     0.507300000000     0.268190000000     0          
C567     C      0.754500000000     0.509000000000     0.044300000000     0          
C568     C      0.491900000000     0.245950000000     0.210300000000     0          
H569     H      0.492700000000     0.246350000000     0.268190000000     0          
C570     C      0.491000000000     0.245500000000     0.044300000000     0          
C571     C      0.754050000000     0.245950000000     0.210300000000     0          
H572     H      0.753650000000     0.246350000000     0.268190000000     0          
C573     C      0.754500000000     0.245500000000     0.044300000000     0          
C574     C      0.245950000000     0.491900000000     0.210300000000     0          
H575     H      0.246350000000     0.492700000000     0.268190000000     0          
C576     C      0.245500000000     0.491000000000     0.044300000000     0          
C577     C      0.508100000000     0.754050000000     0.210300000000     0          
H578     H      0.507300000000     0.753650000000     0.268190000000     0          
C579     C      0.509000000000     0.754500000000     0.044300000000     0          
C580     C      0.245950000000     0.754050000000     0.210300000000     0          
H581     H      0.246350000000     0.753650000000     0.268190000000     0          
C582     C      0.245500000000     0.754500000000     0.044300000000     0          
C583     C      0.508100000000     0.754050000000     0.789700000000     0          
H584     H      0.507300000000     0.753650000000     0.731810000000     0          
C585     C      0.509000000000     0.754500000000     0.955700000000     0          
C586     C      0.245950000000     0.491900000000     0.789700000000     0          
H587     H      0.246350000000     0.492700000000     0.731810000000     0          
C588     C      0.245500000000     0.491000000000     0.955700000000     0          
C589     C      0.245950000000     0.754050000000     0.789700000000     0          
H590     H      0.246350000000     0.753650000000     0.731810000000     0          
C591     C      0.245500000000     0.754500000000     0.955700000000     0          
C592     C      0.491900000000     0.245950000000     0.789700000000     0          
H593     H      0.492700000000     0.246350000000     0.731810000000     0          
C594     C      0.491000000000     0.245500000000     0.955700000000     0          
C595     C      0.754050000000     0.508100000000     0.789700000000     0          
H596     H      0.753650000000     0.507300000000     0.731810000000     0          
C597     C      0.754500000000     0.509000000000     0.955700000000     0          
C598     C      0.754050000000     0.245950000000     0.789700000000     0          
H599     H      0.753650000000     0.246350000000     0.731810000000     0          
C600     C      0.754500000000     0.245500000000     0.955700000000     0          
O601     O      0.964700000000     0.528900000000     0.500000000000     0          
O602     O      0.471100000000     0.435800000000     0.500000000000     0          
O603     O      0.564200000000     0.035300000000     0.500000000000     0          
O604     O      0.035300000000     0.471100000000     0.500000000000     0          
O605     O      0.528900000000     0.564200000000     0.500000000000     0          
O606     O      0.435800000000     0.964700000000     0.500000000000     0          
O607     O      0.528900000000     0.964700000000     0.500000000000     0          
O608     O      0.435800000000     0.471100000000     0.500000000000     0          
O609     O      0.035300000000     0.564200000000     0.500000000000     0          
O610     O      0.471100000000     0.035300000000     0.500000000000     0          
O611     O      0.564200000000     0.528900000000     0.500000000000     0          
O612     O      0.964700000000     0.435800000000     0.500000000000     0          
O613     O      0.036500000000     0.518250000000     0.609700000000     0          
O614     O      0.481750000000     0.518250000000     0.609700000000     0          
O615     O      0.481750000000     0.963500000000     0.609700000000     0          
O616     O      0.963500000000     0.481750000000     0.609700000000     0          
O617     O      0.518250000000     0.481750000000     0.609700000000     0          
O618     O      0.518250000000     0.036500000000     0.609700000000     0          
O619     O      0.518250000000     0.036500000000     0.390300000000     0          
O620     O      0.518250000000     0.481750000000     0.390300000000     0          
O621     O      0.963500000000     0.481750000000     0.390300000000     0          
O622     O      0.481750000000     0.963500000000     0.390300000000     0          
O623     O      0.481750000000     0.518250000000     0.390300000000     0          
O624     O      0.036500000000     0.518250000000     0.390300000000     0          
O625     O      0.000000000000     0.539400000000     0.740200000000     0          
O626     O      0.000000000000     0.600300000000     0.585000000000     0          
Zr627    Zr     0.000000000000     0.544910000000     0.607550000000     0          
O628     O      0.460600000000     0.460600000000     0.740200000000     0          
O629     O      0.399700000000     0.399700000000     0.585000000000     0          
Zr630    Zr     0.455090000000     0.455090000000     0.607550000000     0          
O631     O      0.539400000000     0.000000000000     0.740200000000     0          
O632     O      0.600300000000     0.000000000000     0.585000000000     0          
Zr633    Zr     0.544910000000     0.000000000000     0.607550000000     0          
O634     O      0.000000000000     0.460600000000     0.740200000000     0          
O635     O      0.000000000000     0.399700000000     0.585000000000     0          
Zr636    Zr     0.000000000000     0.455090000000     0.607550000000     0          
O637     O      0.539400000000     0.539400000000     0.740200000000     0          
O638     O      0.600300000000     0.600300000000     0.585000000000     0          
Zr639    Zr     0.544910000000     0.544910000000     0.607550000000     0          
O640     O      0.460600000000     0.000000000000     0.740200000000     0          
O641     O      0.399700000000     0.000000000000     0.585000000000     0          
Zr642    Zr     0.455090000000     0.000000000000     0.607550000000     0          
O643     O      0.539400000000     0.000000000000     0.259800000000     0          
O644     O      0.600300000000     0.000000000000     0.415000000000     0          
Zr645    Zr     0.544910000000     0.000000000000     0.392450000000     0          
O646     O      0.460600000000     0.460600000000     0.259800000000     0          
O647     O      0.399700000000     0.399700000000     0.415000000000     0          
Zr648    Zr     0.455090000000     0.455090000000     0.392450000000     0          
O649     O      0.000000000000     0.539400000000     0.259800000000     0          
O650     O      0.000000000000     0.600300000000     0.415000000000     0          
Zr651    Zr     0.000000000000     0.544910000000     0.392450000000     0          
O652     O      0.460600000000     0.000000000000     0.259800000000     0          
O653     O      0.399700000000     0.000000000000     0.415000000000     0          
Zr654    Zr     0.455090000000     0.000000000000     0.392450000000     0          
O655     O      0.539400000000     0.539400000000     0.259800000000     0          
O656     O      0.600300000000     0.600300000000     0.415000000000     0          
Zr657    Zr     0.544910000000     0.544910000000     0.392450000000     0          
O658     O      0.000000000000     0.460600000000     0.259800000000     0          
O659     O      0.000000000000     0.399700000000     0.415000000000     0          
Zr660    Zr     0.000000000000     0.455090000000     0.392450000000     0          
Zr661    Zr     0.928190000000     0.464090000000     0.500000000000     0          
Zr662    Zr     0.535910000000     0.464090000000     0.500000000000     0          
Zr663    Zr     0.535910000000     0.071810000000     0.500000000000     0          
Zr664    Zr     0.071810000000     0.535910000000     0.500000000000     0          
Zr665    Zr     0.464090000000     0.535910000000     0.500000000000     0          
Zr666    Zr     0.464090000000     0.928190000000     0.500000000000     0          
C667     C      0.000000000000     0.607000000000     0.500000000000     0          
C668     C      0.393000000000     0.393000000000     0.500000000000     0          
C669     C      0.607000000000     0.000000000000     0.500000000000     0          
C670     C      0.000000000000     0.393000000000     0.500000000000     0          
C671     C      0.607000000000     0.607000000000     0.500000000000     0          
C672     C      0.393000000000     0.000000000000     0.500000000000     0          


