data_BOGNES

_audit_creation_method RASPA-1.0
_audit_creation_date 2020-11-2
_audit_author_name 'Rocio Bueno-Perez'

_cell_length_a    46.116
_cell_length_b    46.116
_cell_length_c    46.116
_cell_angle_alpha 90
_cell_angle_beta  90
_cell_angle_gamma 90
_cell_volume      98074.2

_symmetry_cell_setting          triclinic
_symmetry_space_group_name_Hall 'P 1'
_symmetry_space_group_name_H-M  'P 1'
_symmetry_Int_Tables_number     1

_symmetry_equiv_pos_as_xyz 'x,y,z'

loop_
_atom_site_label
_atom_site_type_symbol
_atom_site_fract_x
_atom_site_fract_y
_atom_site_fract_z
_atom_site_charge
O1       O      0.960100000000     0.992100000000     0.079100000000     0          
O2       O      0.007900000000     0.039900000000     0.079800000000     0          
C3       C      0.935500000000     0.989900000000     0.064400000000     0          
C4       C      0.908700000000     0.984500000000     0.077500000000     0          
C5       C      0.914200000000     0.958800000000     0.092100000000     0          
C6       C      0.884000000000     0.000500000000     0.083900000000     0          
C7       C      0.895000000000     0.949000000000     0.113200000000     0          
C8       C      0.864800000000     0.990700000000     0.105000000000     0          
C9       C      0.870300000000     0.965000000000     0.119600000000     0          
C10      C      0.844900000000     0.968100000000     0.147500000000     0          
C11      C      0.823800000000     0.957800000000     0.163700000000     0          
C12      C      0.800900000000     0.949100000000     0.186500000000     0          
C13      C      0.780200000000     0.970900000000     0.188600000000     0          
C14      C      0.801400000000     0.926700000000     0.206600000000     0          
C15      C      0.760000000000     0.970300000000     0.211000000000     0          
C16      C      0.781100000000     0.926200000000     0.229000000000     0          
C17      C      0.822100000000     0.904900000000     0.204500000000     0          
C18      C      0.760400000000     0.948000000000     0.231200000000     0          
P19      P      0.727600000000     0.996300000000     0.220400000000     0          
C20      C      0.781600000000     0.903800000000     0.249200000000     0          
C21      C      0.822500000000     0.882600000000     0.224700000000     0          
C22      C      0.726200000000     0.029700000000     0.192400000000     0          
C23      C      0.705200000000     0.964900000000     0.202800000000     0          
C24      C      0.802300000000     0.882000000000     0.247000000000     0          
C25      C      0.745300000000     0.052900000000     0.191500000000     0          
C26      C      0.708200000000     0.024000000000     0.168900000000     0          
C27      C      0.678200000000     0.963900000000     0.216300000000     0          
C28      C      0.709700000000     0.949800000000     0.177200000000     0          
C29      C      0.746600000000     0.070500000000     0.167000000000     0          
C30      C      0.709400000000     0.041500000000     0.144400000000     0          
C31      C      0.655800000000     0.947800000000     0.204100000000     0          
C32      C      0.687400000000     0.933700000000     0.165000000000     0          
C33      C      0.728600000000     0.064800000000     0.143500000000     0          
C34      C      0.660400000000     0.932700000000     0.178400000000     0          
H35      H      0.934470000000     0.945680000000     0.086820000000     0          
H36      H      0.879490000000     0.021620000000     0.071870000000     0          
H37      H      0.899550000000     0.927870000000     0.125200000000     0          
H38      H      0.844520000000     0.003800000000     0.110300000000     0          
H39      H      0.779800000000     0.989210000000     0.172000000000     0          
H40      H      0.838720000000     0.905350000000     0.186200000000     0          
H41      H      0.743790000000     0.947610000000     0.249510000000     0          
H42      H      0.765040000000     0.903330000000     0.267550000000     0          
H43      H      0.839460000000     0.864690000000     0.223010000000     0          
H44      H      0.802690000000     0.863610000000     0.263520000000     0          
H45      H      0.759970000000     0.057590000000     0.210840000000     0          
H46      H      0.692450000000     0.004960000000     0.169730000000     0          
H47      H      0.674450000000     0.976280000000     0.237360000000     0          
H48      H      0.731780000000     0.950590000000     0.166100000000     0          
H49      H      0.762390000000     0.089510000000     0.166260000000     0          
H50      H      0.694690000000     0.036770000000     0.125100000000     0          
H51      H      0.633710000000     0.946990000000     0.215160000000     0          
H52      H      0.691200000000     0.921270000000     0.143970000000     0          
H53      H      0.729580000000     0.079240000000     0.123460000000     0          
H54      H      0.642050000000     0.919530000000     0.168350000000     0          
O55      O      0.960100000000     0.492100000000     0.579100000000     0          
O56      O      0.007900000000     0.539900000000     0.579800000000     0          
C57      C      0.935500000000     0.489900000000     0.564400000000     0          
C58      C      0.908700000000     0.484500000000     0.577500000000     0          
C59      C      0.914200000000     0.458800000000     0.592100000000     0          
C60      C      0.884000000000     0.500500000000     0.583900000000     0          
C61      C      0.895000000000     0.449000000000     0.613200000000     0          
C62      C      0.864800000000     0.490700000000     0.605000000000     0          
C63      C      0.870300000000     0.465000000000     0.619600000000     0          
C64      C      0.844900000000     0.468100000000     0.647500000000     0          
C65      C      0.823800000000     0.457800000000     0.663700000000     0          
C66      C      0.800900000000     0.449100000000     0.686500000000     0          
C67      C      0.780200000000     0.470900000000     0.688600000000     0          
C68      C      0.801400000000     0.426700000000     0.706600000000     0          
C69      C      0.760000000000     0.470300000000     0.711000000000     0          
C70      C      0.781100000000     0.426200000000     0.729000000000     0          
C71      C      0.822100000000     0.404900000000     0.704500000000     0          
C72      C      0.760400000000     0.448000000000     0.731200000000     0          
P73      P      0.727600000000     0.496300000000     0.720400000000     0          
C74      C      0.781600000000     0.403800000000     0.749200000000     0          
C75      C      0.822500000000     0.382600000000     0.724700000000     0          
C76      C      0.726200000000     0.529700000000     0.692400000000     0          
C77      C      0.705200000000     0.464900000000     0.702800000000     0          
C78      C      0.802300000000     0.382000000000     0.747000000000     0          
C79      C      0.745300000000     0.552900000000     0.691500000000     0          
C80      C      0.708200000000     0.524000000000     0.668900000000     0          
C81      C      0.678200000000     0.463900000000     0.716300000000     0          
C82      C      0.709700000000     0.449800000000     0.677200000000     0          
C83      C      0.746600000000     0.570500000000     0.667000000000     0          
C84      C      0.709400000000     0.541500000000     0.644400000000     0          
C85      C      0.655800000000     0.447800000000     0.704100000000     0          
C86      C      0.687400000000     0.433700000000     0.665000000000     0          
C87      C      0.728600000000     0.564800000000     0.643500000000     0          
C88      C      0.660400000000     0.432700000000     0.678400000000     0          
H89      H      0.934470000000     0.445680000000     0.586820000000     0          
H90      H      0.879490000000     0.521620000000     0.571870000000     0          
H91      H      0.899550000000     0.427870000000     0.625200000000     0          
H92      H      0.844520000000     0.503800000000     0.610300000000     0          
H93      H      0.779800000000     0.489210000000     0.672000000000     0          
H94      H      0.838720000000     0.405350000000     0.686200000000     0          
H95      H      0.743790000000     0.447610000000     0.749510000000     0          
H96      H      0.765040000000     0.403330000000     0.767550000000     0          
H97      H      0.839460000000     0.364690000000     0.723010000000     0          
H98      H      0.802690000000     0.363610000000     0.763520000000     0          
H99      H      0.759970000000     0.557590000000     0.710840000000     0          
H100     H      0.692450000000     0.504960000000     0.669730000000     0          
H101     H      0.674450000000     0.476280000000     0.737360000000     0          
H102     H      0.731780000000     0.450590000000     0.666100000000     0          
H103     H      0.762390000000     0.589510000000     0.666260000000     0          
H104     H      0.694690000000     0.536770000000     0.625100000000     0          
H105     H      0.633710000000     0.446990000000     0.715160000000     0          
H106     H      0.691200000000     0.421270000000     0.643970000000     0          
H107     H      0.729580000000     0.579240000000     0.623460000000     0          
H108     H      0.642050000000     0.419530000000     0.668350000000     0          
O109     O      0.460100000000     0.992100000000     0.579100000000     0          
O110     O      0.507900000000     0.039900000000     0.579800000000     0          
C111     C      0.435500000000     0.989900000000     0.564400000000     0          
C112     C      0.408700000000     0.984500000000     0.577500000000     0          
C113     C      0.414200000000     0.958800000000     0.592100000000     0          
C114     C      0.384000000000     0.000500000000     0.583900000000     0          
C115     C      0.395000000000     0.949000000000     0.613200000000     0          
C116     C      0.364800000000     0.990700000000     0.605000000000     0          
C117     C      0.370300000000     0.965000000000     0.619600000000     0          
C118     C      0.344900000000     0.968100000000     0.647500000000     0          
C119     C      0.323800000000     0.957800000000     0.663700000000     0          
C120     C      0.300900000000     0.949100000000     0.686500000000     0          
C121     C      0.280200000000     0.970900000000     0.688600000000     0          
C122     C      0.301400000000     0.926700000000     0.706600000000     0          
C123     C      0.260000000000     0.970300000000     0.711000000000     0          
C124     C      0.281100000000     0.926200000000     0.729000000000     0          
C125     C      0.322100000000     0.904900000000     0.704500000000     0          
C126     C      0.260400000000     0.948000000000     0.731200000000     0          
P127     P      0.227600000000     0.996300000000     0.720400000000     0          
C128     C      0.281600000000     0.903800000000     0.749200000000     0          
C129     C      0.322500000000     0.882600000000     0.724700000000     0          
C130     C      0.226200000000     0.029700000000     0.692400000000     0          
C131     C      0.205200000000     0.964900000000     0.702800000000     0          
C132     C      0.302300000000     0.882000000000     0.747000000000     0          
C133     C      0.245300000000     0.052900000000     0.691500000000     0          
C134     C      0.208200000000     0.024000000000     0.668900000000     0          
C135     C      0.178200000000     0.963900000000     0.716300000000     0          
C136     C      0.209700000000     0.949800000000     0.677200000000     0          
C137     C      0.246600000000     0.070500000000     0.667000000000     0          
C138     C      0.209400000000     0.041500000000     0.644400000000     0          
C139     C      0.155800000000     0.947800000000     0.704100000000     0          
C140     C      0.187400000000     0.933700000000     0.665000000000     0          
C141     C      0.228600000000     0.064800000000     0.643500000000     0          
C142     C      0.160400000000     0.932700000000     0.678400000000     0          
H143     H      0.434470000000     0.945680000000     0.586820000000     0          
H144     H      0.379490000000     0.021620000000     0.571870000000     0          
H145     H      0.399550000000     0.927870000000     0.625200000000     0          
H146     H      0.344520000000     0.003800000000     0.610300000000     0          
H147     H      0.279800000000     0.989210000000     0.672000000000     0          
H148     H      0.338720000000     0.905350000000     0.686200000000     0          
H149     H      0.243790000000     0.947610000000     0.749510000000     0          
H150     H      0.265040000000     0.903330000000     0.767550000000     0          
H151     H      0.339460000000     0.864690000000     0.723010000000     0          
H152     H      0.302690000000     0.863610000000     0.763520000000     0          
H153     H      0.259970000000     0.057590000000     0.710840000000     0          
H154     H      0.192450000000     0.004960000000     0.669730000000     0          
H155     H      0.174450000000     0.976280000000     0.737360000000     0          
H156     H      0.231780000000     0.950590000000     0.666100000000     0          
H157     H      0.262390000000     0.089510000000     0.666260000000     0          
H158     H      0.194690000000     0.036770000000     0.625100000000     0          
H159     H      0.133710000000     0.946990000000     0.715160000000     0          
H160     H      0.191200000000     0.921270000000     0.643970000000     0          
H161     H      0.229580000000     0.079240000000     0.623460000000     0          
H162     H      0.142050000000     0.919530000000     0.668350000000     0          
O163     O      0.460100000000     0.492100000000     0.079100000000     0          
O164     O      0.507900000000     0.539900000000     0.079800000000     0          
C165     C      0.435500000000     0.489900000000     0.064400000000     0          
C166     C      0.408700000000     0.484500000000     0.077500000000     0          
C167     C      0.414200000000     0.458800000000     0.092100000000     0          
C168     C      0.384000000000     0.500500000000     0.083900000000     0          
C169     C      0.395000000000     0.449000000000     0.113200000000     0          
C170     C      0.364800000000     0.490700000000     0.105000000000     0          
C171     C      0.370300000000     0.465000000000     0.119600000000     0          
C172     C      0.344900000000     0.468100000000     0.147500000000     0          
C173     C      0.323800000000     0.457800000000     0.163700000000     0          
C174     C      0.300900000000     0.449100000000     0.186500000000     0          
C175     C      0.280200000000     0.470900000000     0.188600000000     0          
C176     C      0.301400000000     0.426700000000     0.206600000000     0          
C177     C      0.260000000000     0.470300000000     0.211000000000     0          
C178     C      0.281100000000     0.426200000000     0.229000000000     0          
C179     C      0.322100000000     0.404900000000     0.204500000000     0          
C180     C      0.260400000000     0.448000000000     0.231200000000     0          
P181     P      0.227600000000     0.496300000000     0.220400000000     0          
C182     C      0.281600000000     0.403800000000     0.249200000000     0          
C183     C      0.322500000000     0.382600000000     0.224700000000     0          
C184     C      0.226200000000     0.529700000000     0.192400000000     0          
C185     C      0.205200000000     0.464900000000     0.202800000000     0          
C186     C      0.302300000000     0.382000000000     0.247000000000     0          
C187     C      0.245300000000     0.552900000000     0.191500000000     0          
C188     C      0.208200000000     0.524000000000     0.168900000000     0          
C189     C      0.178200000000     0.463900000000     0.216300000000     0          
C190     C      0.209700000000     0.449800000000     0.177200000000     0          
C191     C      0.246600000000     0.570500000000     0.167000000000     0          
C192     C      0.209400000000     0.541500000000     0.144400000000     0          
C193     C      0.155800000000     0.447800000000     0.204100000000     0          
C194     C      0.187400000000     0.433700000000     0.165000000000     0          
C195     C      0.228600000000     0.564800000000     0.143500000000     0          
C196     C      0.160400000000     0.432700000000     0.178400000000     0          
H197     H      0.434470000000     0.445680000000     0.086820000000     0          
H198     H      0.379490000000     0.521620000000     0.071870000000     0          
H199     H      0.399550000000     0.427870000000     0.125200000000     0          
H200     H      0.344520000000     0.503800000000     0.110300000000     0          
H201     H      0.279800000000     0.489210000000     0.172000000000     0          
H202     H      0.338720000000     0.405350000000     0.186200000000     0          
H203     H      0.243790000000     0.447610000000     0.249510000000     0          
H204     H      0.265040000000     0.403330000000     0.267550000000     0          
H205     H      0.339460000000     0.364690000000     0.223010000000     0          
H206     H      0.302690000000     0.363610000000     0.263520000000     0          
H207     H      0.259970000000     0.557590000000     0.210840000000     0          
H208     H      0.192450000000     0.504960000000     0.169730000000     0          
H209     H      0.174450000000     0.476280000000     0.237360000000     0          
H210     H      0.231780000000     0.450590000000     0.166100000000     0          
H211     H      0.262390000000     0.589510000000     0.166260000000     0          
H212     H      0.194690000000     0.536770000000     0.125100000000     0          
H213     H      0.133710000000     0.446990000000     0.215160000000     0          
H214     H      0.191200000000     0.421270000000     0.143970000000     0          
H215     H      0.229580000000     0.579240000000     0.123460000000     0          
H216     H      0.142050000000     0.419530000000     0.168350000000     0          
O217     O      0.039900000000     0.007900000000     0.079100000000     0          
O218     O      0.992100000000     0.960100000000     0.079800000000     0          
C219     C      0.064500000000     0.010100000000     0.064400000000     0          
C220     C      0.091300000000     0.015500000000     0.077500000000     0          
C221     C      0.085800000000     0.041200000000     0.092100000000     0          
C222     C      0.116000000000     0.999500000000     0.083900000000     0          
C223     C      0.105000000000     0.051000000000     0.113200000000     0          
C224     C      0.135200000000     0.009300000000     0.105000000000     0          
C225     C      0.129700000000     0.035000000000     0.119600000000     0          
C226     C      0.155100000000     0.031900000000     0.147500000000     0          
C227     C      0.176200000000     0.042200000000     0.163700000000     0          
C228     C      0.199100000000     0.050900000000     0.186500000000     0          
C229     C      0.219800000000     0.029100000000     0.188600000000     0          
C230     C      0.198600000000     0.073300000000     0.206600000000     0          
C231     C      0.240000000000     0.029700000000     0.211000000000     0          
C232     C      0.218900000000     0.073800000000     0.229000000000     0          
C233     C      0.177900000000     0.095100000000     0.204500000000     0          
C234     C      0.239600000000     0.052000000000     0.231200000000     0          
P235     P      0.272400000000     0.003700000000     0.220400000000     0          
C236     C      0.218400000000     0.096200000000     0.249200000000     0          
C237     C      0.177500000000     0.117400000000     0.224700000000     0          
C238     C      0.273800000000     0.970300000000     0.192400000000     0          
C239     C      0.294800000000     0.035100000000     0.202800000000     0          
C240     C      0.197700000000     0.118000000000     0.247000000000     0          
C241     C      0.254700000000     0.947100000000     0.191500000000     0          
C242     C      0.291800000000     0.976000000000     0.168900000000     0          
C243     C      0.321800000000     0.036100000000     0.216300000000     0          
C244     C      0.290300000000     0.050200000000     0.177200000000     0          
C245     C      0.253400000000     0.929500000000     0.167000000000     0          
C246     C      0.290600000000     0.958500000000     0.144400000000     0          
C247     C      0.344200000000     0.052200000000     0.204100000000     0          
C248     C      0.312600000000     0.066300000000     0.165000000000     0          
C249     C      0.271400000000     0.935200000000     0.143500000000     0          
C250     C      0.339600000000     0.067300000000     0.178400000000     0          
H251     H      0.065530000000     0.054320000000     0.086820000000     0          
H252     H      0.120510000000     0.978380000000     0.071870000000     0          
H253     H      0.100450000000     0.072130000000     0.125200000000     0          
H254     H      0.155480000000     0.996200000000     0.110300000000     0          
H255     H      0.220200000000     0.010790000000     0.172000000000     0          
H256     H      0.161280000000     0.094650000000     0.186200000000     0          
H257     H      0.256210000000     0.052390000000     0.249510000000     0          
H258     H      0.234960000000     0.096670000000     0.267550000000     0          
H259     H      0.160540000000     0.135310000000     0.223010000000     0          
H260     H      0.197310000000     0.136390000000     0.263520000000     0          
H261     H      0.240030000000     0.942410000000     0.210840000000     0          
H262     H      0.307550000000     0.995040000000     0.169730000000     0          
H263     H      0.325550000000     0.023720000000     0.237360000000     0          
H264     H      0.268220000000     0.049410000000     0.166100000000     0          
H265     H      0.237610000000     0.910490000000     0.166260000000     0          
H266     H      0.305310000000     0.963230000000     0.125100000000     0          
H267     H      0.366290000000     0.053010000000     0.215160000000     0          
H268     H      0.308800000000     0.078730000000     0.143970000000     0          
H269     H      0.270420000000     0.920760000000     0.123460000000     0          
H270     H      0.357950000000     0.080470000000     0.168350000000     0          
O271     O      0.039900000000     0.507900000000     0.579100000000     0          
O272     O      0.992100000000     0.460100000000     0.579800000000     0          
C273     C      0.064500000000     0.510100000000     0.564400000000     0          
C274     C      0.091300000000     0.515500000000     0.577500000000     0          
C275     C      0.085800000000     0.541200000000     0.592100000000     0          
C276     C      0.116000000000     0.499500000000     0.583900000000     0          
C277     C      0.105000000000     0.551000000000     0.613200000000     0          
C278     C      0.135200000000     0.509300000000     0.605000000000     0          
C279     C      0.129700000000     0.535000000000     0.619600000000     0          
C280     C      0.155100000000     0.531900000000     0.647500000000     0          
C281     C      0.176200000000     0.542200000000     0.663700000000     0          
C282     C      0.199100000000     0.550900000000     0.686500000000     0          
C283     C      0.219800000000     0.529100000000     0.688600000000     0          
C284     C      0.198600000000     0.573300000000     0.706600000000     0          
C285     C      0.240000000000     0.529700000000     0.711000000000     0          
C286     C      0.218900000000     0.573800000000     0.729000000000     0          
C287     C      0.177900000000     0.595100000000     0.704500000000     0          
C288     C      0.239600000000     0.552000000000     0.731200000000     0          
P289     P      0.272400000000     0.503700000000     0.720400000000     0          
C290     C      0.218400000000     0.596200000000     0.749200000000     0          
C291     C      0.177500000000     0.617400000000     0.724700000000     0          
C292     C      0.273800000000     0.470300000000     0.692400000000     0          
C293     C      0.294800000000     0.535100000000     0.702800000000     0          
C294     C      0.197700000000     0.618000000000     0.747000000000     0          
C295     C      0.254700000000     0.447100000000     0.691500000000     0          
C296     C      0.291800000000     0.476000000000     0.668900000000     0          
C297     C      0.321800000000     0.536100000000     0.716300000000     0          
C298     C      0.290300000000     0.550200000000     0.677200000000     0          
C299     C      0.253400000000     0.429500000000     0.667000000000     0          
C300     C      0.290600000000     0.458500000000     0.644400000000     0          
C301     C      0.344200000000     0.552200000000     0.704100000000     0          
C302     C      0.312600000000     0.566300000000     0.665000000000     0          
C303     C      0.271400000000     0.435200000000     0.643500000000     0          
C304     C      0.339600000000     0.567300000000     0.678400000000     0          
H305     H      0.065530000000     0.554320000000     0.586820000000     0          
H306     H      0.120510000000     0.478380000000     0.571870000000     0          
H307     H      0.100450000000     0.572130000000     0.625200000000     0          
H308     H      0.155480000000     0.496200000000     0.610300000000     0          
H309     H      0.220200000000     0.510790000000     0.672000000000     0          
H310     H      0.161280000000     0.594650000000     0.686200000000     0          
H311     H      0.256210000000     0.552390000000     0.749510000000     0          
H312     H      0.234960000000     0.596670000000     0.767550000000     0          
H313     H      0.160540000000     0.635310000000     0.723010000000     0          
H314     H      0.197310000000     0.636390000000     0.763520000000     0          
H315     H      0.240030000000     0.442410000000     0.710840000000     0          
H316     H      0.307550000000     0.495040000000     0.669730000000     0          
H317     H      0.325550000000     0.523720000000     0.737360000000     0          
H318     H      0.268220000000     0.549410000000     0.666100000000     0          
H319     H      0.237610000000     0.410490000000     0.666260000000     0          
H320     H      0.305310000000     0.463230000000     0.625100000000     0          
H321     H      0.366290000000     0.553010000000     0.715160000000     0          
H322     H      0.308800000000     0.578730000000     0.643970000000     0          
H323     H      0.270420000000     0.420760000000     0.623460000000     0          
H324     H      0.357950000000     0.580470000000     0.668350000000     0          
O325     O      0.539900000000     0.007900000000     0.579100000000     0          
O326     O      0.492100000000     0.960100000000     0.579800000000     0          
C327     C      0.564500000000     0.010100000000     0.564400000000     0          
C328     C      0.591300000000     0.015500000000     0.577500000000     0          
C329     C      0.585800000000     0.041200000000     0.592100000000     0          
C330     C      0.616000000000     0.999500000000     0.583900000000     0          
C331     C      0.605000000000     0.051000000000     0.613200000000     0          
C332     C      0.635200000000     0.009300000000     0.605000000000     0          
C333     C      0.629700000000     0.035000000000     0.619600000000     0          
C334     C      0.655100000000     0.031900000000     0.647500000000     0          
C335     C      0.676200000000     0.042200000000     0.663700000000     0          
C336     C      0.699100000000     0.050900000000     0.686500000000     0          
C337     C      0.719800000000     0.029100000000     0.688600000000     0          
C338     C      0.698600000000     0.073300000000     0.706600000000     0          
C339     C      0.740000000000     0.029700000000     0.711000000000     0          
C340     C      0.718900000000     0.073800000000     0.729000000000     0          
C341     C      0.677900000000     0.095100000000     0.704500000000     0          
C342     C      0.739600000000     0.052000000000     0.731200000000     0          
P343     P      0.772400000000     0.003700000000     0.720400000000     0          
C344     C      0.718400000000     0.096200000000     0.749200000000     0          
C345     C      0.677500000000     0.117400000000     0.724700000000     0          
C346     C      0.773800000000     0.970300000000     0.692400000000     0          
C347     C      0.794800000000     0.035100000000     0.702800000000     0          
C348     C      0.697700000000     0.118000000000     0.747000000000     0          
C349     C      0.754700000000     0.947100000000     0.691500000000     0          
C350     C      0.791800000000     0.976000000000     0.668900000000     0          
C351     C      0.821800000000     0.036100000000     0.716300000000     0          
C352     C      0.790300000000     0.050200000000     0.677200000000     0          
C353     C      0.753400000000     0.929500000000     0.667000000000     0          
C354     C      0.790600000000     0.958500000000     0.644400000000     0          
C355     C      0.844200000000     0.052200000000     0.704100000000     0          
C356     C      0.812600000000     0.066300000000     0.665000000000     0          
C357     C      0.771400000000     0.935200000000     0.643500000000     0          
C358     C      0.839600000000     0.067300000000     0.678400000000     0          
H359     H      0.565530000000     0.054320000000     0.586820000000     0          
H360     H      0.620510000000     0.978380000000     0.571870000000     0          
H361     H      0.600450000000     0.072130000000     0.625200000000     0          
H362     H      0.655480000000     0.996200000000     0.610300000000     0          
H363     H      0.720200000000     0.010790000000     0.672000000000     0          
H364     H      0.661280000000     0.094650000000     0.686200000000     0          
H365     H      0.756210000000     0.052390000000     0.749510000000     0          
H366     H      0.734960000000     0.096670000000     0.767550000000     0          
H367     H      0.660540000000     0.135310000000     0.723010000000     0          
H368     H      0.697310000000     0.136390000000     0.763520000000     0          
H369     H      0.740030000000     0.942410000000     0.710840000000     0          
H370     H      0.807550000000     0.995040000000     0.669730000000     0          
H371     H      0.825550000000     0.023720000000     0.737360000000     0          
H372     H      0.768220000000     0.049410000000     0.666100000000     0          
H373     H      0.737610000000     0.910490000000     0.666260000000     0          
H374     H      0.805310000000     0.963230000000     0.625100000000     0          
H375     H      0.866290000000     0.053010000000     0.715160000000     0          
H376     H      0.808800000000     0.078730000000     0.643970000000     0          
H377     H      0.770420000000     0.920760000000     0.623460000000     0          
H378     H      0.857950000000     0.080470000000     0.668350000000     0          
O379     O      0.539900000000     0.507900000000     0.079100000000     0          
O380     O      0.492100000000     0.460100000000     0.079800000000     0          
C381     C      0.564500000000     0.510100000000     0.064400000000     0          
C382     C      0.591300000000     0.515500000000     0.077500000000     0          
C383     C      0.585800000000     0.541200000000     0.092100000000     0          
C384     C      0.616000000000     0.499500000000     0.083900000000     0          
C385     C      0.605000000000     0.551000000000     0.113200000000     0          
C386     C      0.635200000000     0.509300000000     0.105000000000     0          
C387     C      0.629700000000     0.535000000000     0.119600000000     0          
C388     C      0.655100000000     0.531900000000     0.147500000000     0          
C389     C      0.676200000000     0.542200000000     0.163700000000     0          
C390     C      0.699100000000     0.550900000000     0.186500000000     0          
C391     C      0.719800000000     0.529100000000     0.188600000000     0          
C392     C      0.698600000000     0.573300000000     0.206600000000     0          
C393     C      0.740000000000     0.529700000000     0.211000000000     0          
C394     C      0.718900000000     0.573800000000     0.229000000000     0          
C395     C      0.677900000000     0.595100000000     0.204500000000     0          
C396     C      0.739600000000     0.552000000000     0.231200000000     0          
P397     P      0.772400000000     0.503700000000     0.220400000000     0          
C398     C      0.718400000000     0.596200000000     0.249200000000     0          
C399     C      0.677500000000     0.617400000000     0.224700000000     0          
C400     C      0.773800000000     0.470300000000     0.192400000000     0          
C401     C      0.794800000000     0.535100000000     0.202800000000     0          
C402     C      0.697700000000     0.618000000000     0.247000000000     0          
C403     C      0.754700000000     0.447100000000     0.191500000000     0          
C404     C      0.791800000000     0.476000000000     0.168900000000     0          
C405     C      0.821800000000     0.536100000000     0.216300000000     0          
C406     C      0.790300000000     0.550200000000     0.177200000000     0          
C407     C      0.753400000000     0.429500000000     0.167000000000     0          
C408     C      0.790600000000     0.458500000000     0.144400000000     0          
C409     C      0.844200000000     0.552200000000     0.204100000000     0          
C410     C      0.812600000000     0.566300000000     0.165000000000     0          
C411     C      0.771400000000     0.435200000000     0.143500000000     0          
C412     C      0.839600000000     0.567300000000     0.178400000000     0          
H413     H      0.565530000000     0.554320000000     0.086820000000     0          
H414     H      0.620510000000     0.478380000000     0.071870000000     0          
H415     H      0.600450000000     0.572130000000     0.125200000000     0          
H416     H      0.655480000000     0.496200000000     0.110300000000     0          
H417     H      0.720200000000     0.510790000000     0.172000000000     0          
H418     H      0.661280000000     0.594650000000     0.186200000000     0          
H419     H      0.756210000000     0.552390000000     0.249510000000     0          
H420     H      0.734960000000     0.596670000000     0.267550000000     0          
H421     H      0.660540000000     0.635310000000     0.223010000000     0          
H422     H      0.697310000000     0.636390000000     0.263520000000     0          
H423     H      0.740030000000     0.442410000000     0.210840000000     0          
H424     H      0.807550000000     0.495040000000     0.169730000000     0          
H425     H      0.825550000000     0.523720000000     0.237360000000     0          
H426     H      0.768220000000     0.549410000000     0.166100000000     0          
H427     H      0.737610000000     0.410490000000     0.166260000000     0          
H428     H      0.805310000000     0.463230000000     0.125100000000     0          
H429     H      0.866290000000     0.553010000000     0.215160000000     0          
H430     H      0.808800000000     0.578730000000     0.143970000000     0          
H431     H      0.770420000000     0.420760000000     0.123460000000     0          
H432     H      0.857950000000     0.580470000000     0.168350000000     0          
O433     O      0.039900000000     0.992100000000     0.920900000000     0          
O434     O      0.992100000000     0.039900000000     0.920200000000     0          
C435     C      0.064500000000     0.989900000000     0.935600000000     0          
C436     C      0.091300000000     0.984500000000     0.922500000000     0          
C437     C      0.085800000000     0.958800000000     0.907900000000     0          
C438     C      0.116000000000     0.000500000000     0.916100000000     0          
C439     C      0.105000000000     0.949000000000     0.886800000000     0          
C440     C      0.135200000000     0.990700000000     0.895000000000     0          
C441     C      0.129700000000     0.965000000000     0.880400000000     0          
C442     C      0.155100000000     0.968100000000     0.852500000000     0          
C443     C      0.176200000000     0.957800000000     0.836300000000     0          
C444     C      0.199100000000     0.949100000000     0.813500000000     0          
C445     C      0.219800000000     0.970900000000     0.811400000000     0          
C446     C      0.198600000000     0.926700000000     0.793400000000     0          
C447     C      0.240000000000     0.970300000000     0.789000000000     0          
C448     C      0.218900000000     0.926200000000     0.771000000000     0          
C449     C      0.177900000000     0.904900000000     0.795500000000     0          
C450     C      0.239600000000     0.948000000000     0.768800000000     0          
P451     P      0.272400000000     0.996300000000     0.779600000000     0          
C452     C      0.218400000000     0.903800000000     0.750800000000     0          
C453     C      0.177500000000     0.882600000000     0.775300000000     0          
C454     C      0.273800000000     0.029700000000     0.807600000000     0          
C455     C      0.294800000000     0.964900000000     0.797200000000     0          
C456     C      0.197700000000     0.882000000000     0.753000000000     0          
C457     C      0.254700000000     0.052900000000     0.808500000000     0          
C458     C      0.291800000000     0.024000000000     0.831100000000     0          
C459     C      0.321800000000     0.963900000000     0.783700000000     0          
C460     C      0.290300000000     0.949800000000     0.822800000000     0          
C461     C      0.253400000000     0.070500000000     0.833000000000     0          
C462     C      0.290600000000     0.041500000000     0.855600000000     0          
C463     C      0.344200000000     0.947800000000     0.795900000000     0          
C464     C      0.312600000000     0.933700000000     0.835000000000     0          
C465     C      0.271400000000     0.064800000000     0.856500000000     0          
C466     C      0.339600000000     0.932700000000     0.821600000000     0          
H467     H      0.065530000000     0.945680000000     0.913180000000     0          
H468     H      0.120510000000     0.021620000000     0.928130000000     0          
H469     H      0.100450000000     0.927870000000     0.874800000000     0          
H470     H      0.155480000000     0.003800000000     0.889700000000     0          
H471     H      0.220200000000     0.989210000000     0.828000000000     0          
H472     H      0.161280000000     0.905350000000     0.813800000000     0          
H473     H      0.256210000000     0.947610000000     0.750490000000     0          
H474     H      0.234960000000     0.903330000000     0.732450000000     0          
H475     H      0.160540000000     0.864690000000     0.776990000000     0          
H476     H      0.197310000000     0.863610000000     0.736480000000     0          
H477     H      0.240030000000     0.057590000000     0.789160000000     0          
H478     H      0.307550000000     0.004960000000     0.830270000000     0          
H479     H      0.325550000000     0.976280000000     0.762640000000     0          
H480     H      0.268220000000     0.950590000000     0.833900000000     0          
H481     H      0.237610000000     0.089510000000     0.833740000000     0          
H482     H      0.305310000000     0.036770000000     0.874900000000     0          
H483     H      0.366290000000     0.946990000000     0.784840000000     0          
H484     H      0.308800000000     0.921270000000     0.856030000000     0          
H485     H      0.270420000000     0.079240000000     0.876540000000     0          
H486     H      0.357950000000     0.919530000000     0.831650000000     0          
O487     O      0.039900000000     0.492100000000     0.420900000000     0          
O488     O      0.992100000000     0.539900000000     0.420200000000     0          
C489     C      0.064500000000     0.489900000000     0.435600000000     0          
C490     C      0.091300000000     0.484500000000     0.422500000000     0          
C491     C      0.085800000000     0.458800000000     0.407900000000     0          
C492     C      0.116000000000     0.500500000000     0.416100000000     0          
C493     C      0.105000000000     0.449000000000     0.386800000000     0          
C494     C      0.135200000000     0.490700000000     0.395000000000     0          
C495     C      0.129700000000     0.465000000000     0.380400000000     0          
C496     C      0.155100000000     0.468100000000     0.352500000000     0          
C497     C      0.176200000000     0.457800000000     0.336300000000     0          
C498     C      0.199100000000     0.449100000000     0.313500000000     0          
C499     C      0.219800000000     0.470900000000     0.311400000000     0          
C500     C      0.198600000000     0.426700000000     0.293400000000     0          
C501     C      0.240000000000     0.470300000000     0.289000000000     0          
C502     C      0.218900000000     0.426200000000     0.271000000000     0          
C503     C      0.177900000000     0.404900000000     0.295500000000     0          
C504     C      0.239600000000     0.448000000000     0.268800000000     0          
P505     P      0.272400000000     0.496300000000     0.279600000000     0          
C506     C      0.218400000000     0.403800000000     0.250800000000     0          
C507     C      0.177500000000     0.382600000000     0.275300000000     0          
C508     C      0.273800000000     0.529700000000     0.307600000000     0          
C509     C      0.294800000000     0.464900000000     0.297200000000     0          
C510     C      0.197700000000     0.382000000000     0.253000000000     0          
C511     C      0.254700000000     0.552900000000     0.308500000000     0          
C512     C      0.291800000000     0.524000000000     0.331100000000     0          
C513     C      0.321800000000     0.463900000000     0.283700000000     0          
C514     C      0.290300000000     0.449800000000     0.322800000000     0          
C515     C      0.253400000000     0.570500000000     0.333000000000     0          
C516     C      0.290600000000     0.541500000000     0.355600000000     0          
C517     C      0.344200000000     0.447800000000     0.295900000000     0          
C518     C      0.312600000000     0.433700000000     0.335000000000     0          
C519     C      0.271400000000     0.564800000000     0.356500000000     0          
C520     C      0.339600000000     0.432700000000     0.321600000000     0          
H521     H      0.065530000000     0.445680000000     0.413180000000     0          
H522     H      0.120510000000     0.521620000000     0.428130000000     0          
H523     H      0.100450000000     0.427870000000     0.374800000000     0          
H524     H      0.155480000000     0.503800000000     0.389700000000     0          
H525     H      0.220200000000     0.489210000000     0.328000000000     0          
H526     H      0.161280000000     0.405350000000     0.313800000000     0          
H527     H      0.256210000000     0.447610000000     0.250490000000     0          
H528     H      0.234960000000     0.403330000000     0.232450000000     0          
H529     H      0.160540000000     0.364690000000     0.276990000000     0          
H530     H      0.197310000000     0.363610000000     0.236480000000     0          
H531     H      0.240030000000     0.557590000000     0.289160000000     0          
H532     H      0.307550000000     0.504960000000     0.330270000000     0          
H533     H      0.325550000000     0.476280000000     0.262640000000     0          
H534     H      0.268220000000     0.450590000000     0.333900000000     0          
H535     H      0.237610000000     0.589510000000     0.333740000000     0          
H536     H      0.305310000000     0.536770000000     0.374900000000     0          
H537     H      0.366290000000     0.446990000000     0.284840000000     0          
H538     H      0.308800000000     0.421270000000     0.356030000000     0          
H539     H      0.270420000000     0.579240000000     0.376540000000     0          
H540     H      0.357950000000     0.419530000000     0.331650000000     0          
O541     O      0.539900000000     0.992100000000     0.420900000000     0          
O542     O      0.492100000000     0.039900000000     0.420200000000     0          
C543     C      0.564500000000     0.989900000000     0.435600000000     0          
C544     C      0.591300000000     0.984500000000     0.422500000000     0          
C545     C      0.585800000000     0.958800000000     0.407900000000     0          
C546     C      0.616000000000     0.000500000000     0.416100000000     0          
C547     C      0.605000000000     0.949000000000     0.386800000000     0          
C548     C      0.635200000000     0.990700000000     0.395000000000     0          
C549     C      0.629700000000     0.965000000000     0.380400000000     0          
C550     C      0.655100000000     0.968100000000     0.352500000000     0          
C551     C      0.676200000000     0.957800000000     0.336300000000     0          
C552     C      0.699100000000     0.949100000000     0.313500000000     0          
C553     C      0.719800000000     0.970900000000     0.311400000000     0          
C554     C      0.698600000000     0.926700000000     0.293400000000     0          
C555     C      0.740000000000     0.970300000000     0.289000000000     0          
C556     C      0.718900000000     0.926200000000     0.271000000000     0          
C557     C      0.677900000000     0.904900000000     0.295500000000     0          
C558     C      0.739600000000     0.948000000000     0.268800000000     0          
P559     P      0.772400000000     0.996300000000     0.279600000000     0          
C560     C      0.718400000000     0.903800000000     0.250800000000     0          
C561     C      0.677500000000     0.882600000000     0.275300000000     0          
C562     C      0.773800000000     0.029700000000     0.307600000000     0          
C563     C      0.794800000000     0.964900000000     0.297200000000     0          
C564     C      0.697700000000     0.882000000000     0.253000000000     0          
C565     C      0.754700000000     0.052900000000     0.308500000000     0          
C566     C      0.791800000000     0.024000000000     0.331100000000     0          
C567     C      0.821800000000     0.963900000000     0.283700000000     0          
C568     C      0.790300000000     0.949800000000     0.322800000000     0          
C569     C      0.753400000000     0.070500000000     0.333000000000     0          
C570     C      0.790600000000     0.041500000000     0.355600000000     0          
C571     C      0.844200000000     0.947800000000     0.295900000000     0          
C572     C      0.812600000000     0.933700000000     0.335000000000     0          
C573     C      0.771400000000     0.064800000000     0.356500000000     0          
C574     C      0.839600000000     0.932700000000     0.321600000000     0          
H575     H      0.565530000000     0.945680000000     0.413180000000     0          
H576     H      0.620510000000     0.021620000000     0.428130000000     0          
H577     H      0.600450000000     0.927870000000     0.374800000000     0          
H578     H      0.655480000000     0.003800000000     0.389700000000     0          
H579     H      0.720200000000     0.989210000000     0.328000000000     0          
H580     H      0.661280000000     0.905350000000     0.313800000000     0          
H581     H      0.756210000000     0.947610000000     0.250490000000     0          
H582     H      0.734960000000     0.903330000000     0.232450000000     0          
H583     H      0.660540000000     0.864690000000     0.276990000000     0          
H584     H      0.697310000000     0.863610000000     0.236480000000     0          
H585     H      0.740030000000     0.057590000000     0.289160000000     0          
H586     H      0.807550000000     0.004960000000     0.330270000000     0          
H587     H      0.825550000000     0.976280000000     0.262640000000     0          
H588     H      0.768220000000     0.950590000000     0.333900000000     0          
H589     H      0.737610000000     0.089510000000     0.333740000000     0          
H590     H      0.805310000000     0.036770000000     0.374900000000     0          
H591     H      0.866290000000     0.946990000000     0.284840000000     0          
H592     H      0.808800000000     0.921270000000     0.356030000000     0          
H593     H      0.770420000000     0.079240000000     0.376540000000     0          
H594     H      0.857950000000     0.919530000000     0.331650000000     0          
O595     O      0.539900000000     0.492100000000     0.920900000000     0          
O596     O      0.492100000000     0.539900000000     0.920200000000     0          
C597     C      0.564500000000     0.489900000000     0.935600000000     0          
C598     C      0.591300000000     0.484500000000     0.922500000000     0          
C599     C      0.585800000000     0.458800000000     0.907900000000     0          
C600     C      0.616000000000     0.500500000000     0.916100000000     0          
C601     C      0.605000000000     0.449000000000     0.886800000000     0          
C602     C      0.635200000000     0.490700000000     0.895000000000     0          
C603     C      0.629700000000     0.465000000000     0.880400000000     0          
C604     C      0.655100000000     0.468100000000     0.852500000000     0          
C605     C      0.676200000000     0.457800000000     0.836300000000     0          
C606     C      0.699100000000     0.449100000000     0.813500000000     0          
C607     C      0.719800000000     0.470900000000     0.811400000000     0          
C608     C      0.698600000000     0.426700000000     0.793400000000     0          
C609     C      0.740000000000     0.470300000000     0.789000000000     0          
C610     C      0.718900000000     0.426200000000     0.771000000000     0          
C611     C      0.677900000000     0.404900000000     0.795500000000     0          
C612     C      0.739600000000     0.448000000000     0.768800000000     0          
P613     P      0.772400000000     0.496300000000     0.779600000000     0          
C614     C      0.718400000000     0.403800000000     0.750800000000     0          
C615     C      0.677500000000     0.382600000000     0.775300000000     0          
C616     C      0.773800000000     0.529700000000     0.807600000000     0          
C617     C      0.794800000000     0.464900000000     0.797200000000     0          
C618     C      0.697700000000     0.382000000000     0.753000000000     0          
C619     C      0.754700000000     0.552900000000     0.808500000000     0          
C620     C      0.791800000000     0.524000000000     0.831100000000     0          
C621     C      0.821800000000     0.463900000000     0.783700000000     0          
C622     C      0.790300000000     0.449800000000     0.822800000000     0          
C623     C      0.753400000000     0.570500000000     0.833000000000     0          
C624     C      0.790600000000     0.541500000000     0.855600000000     0          
C625     C      0.844200000000     0.447800000000     0.795900000000     0          
C626     C      0.812600000000     0.433700000000     0.835000000000     0          
C627     C      0.771400000000     0.564800000000     0.856500000000     0          
C628     C      0.839600000000     0.432700000000     0.821600000000     0          
H629     H      0.565530000000     0.445680000000     0.913180000000     0          
H630     H      0.620510000000     0.521620000000     0.928130000000     0          
H631     H      0.600450000000     0.427870000000     0.874800000000     0          
H632     H      0.655480000000     0.503800000000     0.889700000000     0          
H633     H      0.720200000000     0.489210000000     0.828000000000     0          
H634     H      0.661280000000     0.405350000000     0.813800000000     0          
H635     H      0.756210000000     0.447610000000     0.750490000000     0          
H636     H      0.734960000000     0.403330000000     0.732450000000     0          
H637     H      0.660540000000     0.364690000000     0.776990000000     0          
H638     H      0.697310000000     0.363610000000     0.736480000000     0          
H639     H      0.740030000000     0.557590000000     0.789160000000     0          
H640     H      0.807550000000     0.504960000000     0.830270000000     0          
H641     H      0.825550000000     0.476280000000     0.762640000000     0          
H642     H      0.768220000000     0.450590000000     0.833900000000     0          
H643     H      0.737610000000     0.589510000000     0.833740000000     0          
H644     H      0.805310000000     0.536770000000     0.874900000000     0          
H645     H      0.866290000000     0.446990000000     0.784840000000     0          
H646     H      0.808800000000     0.421270000000     0.856030000000     0          
H647     H      0.770420000000     0.579240000000     0.876540000000     0          
H648     H      0.857950000000     0.419530000000     0.831650000000     0          
O649     O      0.960100000000     0.007900000000     0.920900000000     0          
O650     O      0.007900000000     0.960100000000     0.920200000000     0          
C651     C      0.935500000000     0.010100000000     0.935600000000     0          
C652     C      0.908700000000     0.015500000000     0.922500000000     0          
C653     C      0.914200000000     0.041200000000     0.907900000000     0          
C654     C      0.884000000000     0.999500000000     0.916100000000     0          
C655     C      0.895000000000     0.051000000000     0.886800000000     0          
C656     C      0.864800000000     0.009300000000     0.895000000000     0          
C657     C      0.870300000000     0.035000000000     0.880400000000     0          
C658     C      0.844900000000     0.031900000000     0.852500000000     0          
C659     C      0.823800000000     0.042200000000     0.836300000000     0          
C660     C      0.800900000000     0.050900000000     0.813500000000     0          
C661     C      0.780200000000     0.029100000000     0.811400000000     0          
C662     C      0.801400000000     0.073300000000     0.793400000000     0          
C663     C      0.760000000000     0.029700000000     0.789000000000     0          
C664     C      0.781100000000     0.073800000000     0.771000000000     0          
C665     C      0.822100000000     0.095100000000     0.795500000000     0          
C666     C      0.760400000000     0.052000000000     0.768800000000     0          
P667     P      0.727600000000     0.003700000000     0.779600000000     0          
C668     C      0.781600000000     0.096200000000     0.750800000000     0          
C669     C      0.822500000000     0.117400000000     0.775300000000     0          
C670     C      0.726200000000     0.970300000000     0.807600000000     0          
C671     C      0.705200000000     0.035100000000     0.797200000000     0          
C672     C      0.802300000000     0.118000000000     0.753000000000     0          
C673     C      0.745300000000     0.947100000000     0.808500000000     0          
C674     C      0.708200000000     0.976000000000     0.831100000000     0          
C675     C      0.678200000000     0.036100000000     0.783700000000     0          
C676     C      0.709700000000     0.050200000000     0.822800000000     0          
C677     C      0.746600000000     0.929500000000     0.833000000000     0          
C678     C      0.709400000000     0.958500000000     0.855600000000     0          
C679     C      0.655800000000     0.052200000000     0.795900000000     0          
C680     C      0.687400000000     0.066300000000     0.835000000000     0          
C681     C      0.728600000000     0.935200000000     0.856500000000     0          
C682     C      0.660400000000     0.067300000000     0.821600000000     0          
H683     H      0.934470000000     0.054320000000     0.913180000000     0          
H684     H      0.879490000000     0.978380000000     0.928130000000     0          
H685     H      0.899550000000     0.072130000000     0.874800000000     0          
H686     H      0.844520000000     0.996200000000     0.889700000000     0          
H687     H      0.779800000000     0.010790000000     0.828000000000     0          
H688     H      0.838720000000     0.094650000000     0.813800000000     0          
H689     H      0.743790000000     0.052390000000     0.750490000000     0          
H690     H      0.765040000000     0.096670000000     0.732450000000     0          
H691     H      0.839460000000     0.135310000000     0.776990000000     0          
H692     H      0.802690000000     0.136390000000     0.736480000000     0          
H693     H      0.759970000000     0.942410000000     0.789160000000     0          
H694     H      0.692450000000     0.995040000000     0.830270000000     0          
H695     H      0.674450000000     0.023720000000     0.762640000000     0          
H696     H      0.731780000000     0.049410000000     0.833900000000     0          
H697     H      0.762390000000     0.910490000000     0.833740000000     0          
H698     H      0.694690000000     0.963230000000     0.874900000000     0          
H699     H      0.633710000000     0.053010000000     0.784840000000     0          
H700     H      0.691200000000     0.078730000000     0.856030000000     0          
H701     H      0.729580000000     0.920760000000     0.876540000000     0          
H702     H      0.642050000000     0.080470000000     0.831650000000     0          
O703     O      0.960100000000     0.507900000000     0.420900000000     0          
O704     O      0.007900000000     0.460100000000     0.420200000000     0          
C705     C      0.935500000000     0.510100000000     0.435600000000     0          
C706     C      0.908700000000     0.515500000000     0.422500000000     0          
C707     C      0.914200000000     0.541200000000     0.407900000000     0          
C708     C      0.884000000000     0.499500000000     0.416100000000     0          
C709     C      0.895000000000     0.551000000000     0.386800000000     0          
C710     C      0.864800000000     0.509300000000     0.395000000000     0          
C711     C      0.870300000000     0.535000000000     0.380400000000     0          
C712     C      0.844900000000     0.531900000000     0.352500000000     0          
C713     C      0.823800000000     0.542200000000     0.336300000000     0          
C714     C      0.800900000000     0.550900000000     0.313500000000     0          
C715     C      0.780200000000     0.529100000000     0.311400000000     0          
C716     C      0.801400000000     0.573300000000     0.293400000000     0          
C717     C      0.760000000000     0.529700000000     0.289000000000     0          
C718     C      0.781100000000     0.573800000000     0.271000000000     0          
C719     C      0.822100000000     0.595100000000     0.295500000000     0          
C720     C      0.760400000000     0.552000000000     0.268800000000     0          
P721     P      0.727600000000     0.503700000000     0.279600000000     0          
C722     C      0.781600000000     0.596200000000     0.250800000000     0          
C723     C      0.822500000000     0.617400000000     0.275300000000     0          
C724     C      0.726200000000     0.470300000000     0.307600000000     0          
C725     C      0.705200000000     0.535100000000     0.297200000000     0          
C726     C      0.802300000000     0.618000000000     0.253000000000     0          
C727     C      0.745300000000     0.447100000000     0.308500000000     0          
C728     C      0.708200000000     0.476000000000     0.331100000000     0          
C729     C      0.678200000000     0.536100000000     0.283700000000     0          
C730     C      0.709700000000     0.550200000000     0.322800000000     0          
C731     C      0.746600000000     0.429500000000     0.333000000000     0          
C732     C      0.709400000000     0.458500000000     0.355600000000     0          
C733     C      0.655800000000     0.552200000000     0.295900000000     0          
C734     C      0.687400000000     0.566300000000     0.335000000000     0          
C735     C      0.728600000000     0.435200000000     0.356500000000     0          
C736     C      0.660400000000     0.567300000000     0.321600000000     0          
H737     H      0.934470000000     0.554320000000     0.413180000000     0          
H738     H      0.879490000000     0.478380000000     0.428130000000     0          
H739     H      0.899550000000     0.572130000000     0.374800000000     0          
H740     H      0.844520000000     0.496200000000     0.389700000000     0          
H741     H      0.779800000000     0.510790000000     0.328000000000     0          
H742     H      0.838720000000     0.594650000000     0.313800000000     0          
H743     H      0.743790000000     0.552390000000     0.250490000000     0          
H744     H      0.765040000000     0.596670000000     0.232450000000     0          
H745     H      0.839460000000     0.635310000000     0.276990000000     0          
H746     H      0.802690000000     0.636390000000     0.236480000000     0          
H747     H      0.759970000000     0.442410000000     0.289160000000     0          
H748     H      0.692450000000     0.495040000000     0.330270000000     0          
H749     H      0.674450000000     0.523720000000     0.262640000000     0          
H750     H      0.731780000000     0.549410000000     0.333900000000     0          
H751     H      0.762390000000     0.410490000000     0.333740000000     0          
H752     H      0.694690000000     0.463230000000     0.374900000000     0          
H753     H      0.633710000000     0.553010000000     0.284840000000     0          
H754     H      0.691200000000     0.578730000000     0.356030000000     0          
H755     H      0.729580000000     0.420760000000     0.376540000000     0          
H756     H      0.642050000000     0.580470000000     0.331650000000     0          
O757     O      0.460100000000     0.007900000000     0.420900000000     0          
O758     O      0.507900000000     0.960100000000     0.420200000000     0          
C759     C      0.435500000000     0.010100000000     0.435600000000     0          
C760     C      0.408700000000     0.015500000000     0.422500000000     0          
C761     C      0.414200000000     0.041200000000     0.407900000000     0          
C762     C      0.384000000000     0.999500000000     0.416100000000     0          
C763     C      0.395000000000     0.051000000000     0.386800000000     0          
C764     C      0.364800000000     0.009300000000     0.395000000000     0          
C765     C      0.370300000000     0.035000000000     0.380400000000     0          
C766     C      0.344900000000     0.031900000000     0.352500000000     0          
C767     C      0.323800000000     0.042200000000     0.336300000000     0          
C768     C      0.300900000000     0.050900000000     0.313500000000     0          
C769     C      0.280200000000     0.029100000000     0.311400000000     0          
C770     C      0.301400000000     0.073300000000     0.293400000000     0          
C771     C      0.260000000000     0.029700000000     0.289000000000     0          
C772     C      0.281100000000     0.073800000000     0.271000000000     0          
C773     C      0.322100000000     0.095100000000     0.295500000000     0          
C774     C      0.260400000000     0.052000000000     0.268800000000     0          
P775     P      0.227600000000     0.003700000000     0.279600000000     0          
C776     C      0.281600000000     0.096200000000     0.250800000000     0          
C777     C      0.322500000000     0.117400000000     0.275300000000     0          
C778     C      0.226200000000     0.970300000000     0.307600000000     0          
C779     C      0.205200000000     0.035100000000     0.297200000000     0          
C780     C      0.302300000000     0.118000000000     0.253000000000     0          
C781     C      0.245300000000     0.947100000000     0.308500000000     0          
C782     C      0.208200000000     0.976000000000     0.331100000000     0          
C783     C      0.178200000000     0.036100000000     0.283700000000     0          
C784     C      0.209700000000     0.050200000000     0.322800000000     0          
C785     C      0.246600000000     0.929500000000     0.333000000000     0          
C786     C      0.209400000000     0.958500000000     0.355600000000     0          
C787     C      0.155800000000     0.052200000000     0.295900000000     0          
C788     C      0.187400000000     0.066300000000     0.335000000000     0          
C789     C      0.228600000000     0.935200000000     0.356500000000     0          
C790     C      0.160400000000     0.067300000000     0.321600000000     0          
H791     H      0.434470000000     0.054320000000     0.413180000000     0          
H792     H      0.379490000000     0.978380000000     0.428130000000     0          
H793     H      0.399550000000     0.072130000000     0.374800000000     0          
H794     H      0.344520000000     0.996200000000     0.389700000000     0          
H795     H      0.279800000000     0.010790000000     0.328000000000     0          
H796     H      0.338720000000     0.094650000000     0.313800000000     0          
H797     H      0.243790000000     0.052390000000     0.250490000000     0          
H798     H      0.265040000000     0.096670000000     0.232450000000     0          
H799     H      0.339460000000     0.135310000000     0.276990000000     0          
H800     H      0.302690000000     0.136390000000     0.236480000000     0          
H801     H      0.259970000000     0.942410000000     0.289160000000     0          
H802     H      0.192450000000     0.995040000000     0.330270000000     0          
H803     H      0.174450000000     0.023720000000     0.262640000000     0          
H804     H      0.231780000000     0.049410000000     0.333900000000     0          
H805     H      0.262390000000     0.910490000000     0.333740000000     0          
H806     H      0.194690000000     0.963230000000     0.374900000000     0          
H807     H      0.133710000000     0.053010000000     0.284840000000     0          
H808     H      0.191200000000     0.078730000000     0.356030000000     0          
H809     H      0.229580000000     0.920760000000     0.376540000000     0          
H810     H      0.142050000000     0.080470000000     0.331650000000     0          
O811     O      0.460100000000     0.507900000000     0.920900000000     0          
O812     O      0.507900000000     0.460100000000     0.920200000000     0          
C813     C      0.435500000000     0.510100000000     0.935600000000     0          
C814     C      0.408700000000     0.515500000000     0.922500000000     0          
C815     C      0.414200000000     0.541200000000     0.907900000000     0          
C816     C      0.384000000000     0.499500000000     0.916100000000     0          
C817     C      0.395000000000     0.551000000000     0.886800000000     0          
C818     C      0.364800000000     0.509300000000     0.895000000000     0          
C819     C      0.370300000000     0.535000000000     0.880400000000     0          
C820     C      0.344900000000     0.531900000000     0.852500000000     0          
C821     C      0.323800000000     0.542200000000     0.836300000000     0          
C822     C      0.300900000000     0.550900000000     0.813500000000     0          
C823     C      0.280200000000     0.529100000000     0.811400000000     0          
C824     C      0.301400000000     0.573300000000     0.793400000000     0          
C825     C      0.260000000000     0.529700000000     0.789000000000     0          
C826     C      0.281100000000     0.573800000000     0.771000000000     0          
C827     C      0.322100000000     0.595100000000     0.795500000000     0          
C828     C      0.260400000000     0.552000000000     0.768800000000     0          
P829     P      0.227600000000     0.503700000000     0.779600000000     0          
C830     C      0.281600000000     0.596200000000     0.750800000000     0          
C831     C      0.322500000000     0.617400000000     0.775300000000     0          
C832     C      0.226200000000     0.470300000000     0.807600000000     0          
C833     C      0.205200000000     0.535100000000     0.797200000000     0          
C834     C      0.302300000000     0.618000000000     0.753000000000     0          
C835     C      0.245300000000     0.447100000000     0.808500000000     0          
C836     C      0.208200000000     0.476000000000     0.831100000000     0          
C837     C      0.178200000000     0.536100000000     0.783700000000     0          
C838     C      0.209700000000     0.550200000000     0.822800000000     0          
C839     C      0.246600000000     0.429500000000     0.833000000000     0          
C840     C      0.209400000000     0.458500000000     0.855600000000     0          
C841     C      0.155800000000     0.552200000000     0.795900000000     0          
C842     C      0.187400000000     0.566300000000     0.835000000000     0          
C843     C      0.228600000000     0.435200000000     0.856500000000     0          
C844     C      0.160400000000     0.567300000000     0.821600000000     0          
H845     H      0.434470000000     0.554320000000     0.913180000000     0          
H846     H      0.379490000000     0.478380000000     0.928130000000     0          
H847     H      0.399550000000     0.572130000000     0.874800000000     0          
H848     H      0.344520000000     0.496200000000     0.889700000000     0          
H849     H      0.279800000000     0.510790000000     0.828000000000     0          
H850     H      0.338720000000     0.594650000000     0.813800000000     0          
H851     H      0.243790000000     0.552390000000     0.750490000000     0          
H852     H      0.265040000000     0.596670000000     0.732450000000     0          
H853     H      0.339460000000     0.635310000000     0.776990000000     0          
H854     H      0.302690000000     0.636390000000     0.736480000000     0          
H855     H      0.259970000000     0.442410000000     0.789160000000     0          
H856     H      0.192450000000     0.495040000000     0.830270000000     0          
H857     H      0.174450000000     0.523720000000     0.762640000000     0          
H858     H      0.231780000000     0.549410000000     0.833900000000     0          
H859     H      0.262390000000     0.410490000000     0.833740000000     0          
H860     H      0.194690000000     0.463230000000     0.874900000000     0          
H861     H      0.133710000000     0.553010000000     0.784840000000     0          
H862     H      0.191200000000     0.578730000000     0.856030000000     0          
H863     H      0.229580000000     0.420760000000     0.876540000000     0          
H864     H      0.142050000000     0.580470000000     0.831650000000     0          
O865     O      0.079100000000     0.960100000000     0.992100000000     0          
O866     O      0.079800000000     0.007900000000     0.039900000000     0          
C867     C      0.064400000000     0.935500000000     0.989900000000     0          
C868     C      0.077500000000     0.908700000000     0.984500000000     0          
C869     C      0.092100000000     0.914200000000     0.958800000000     0          
C870     C      0.083900000000     0.884000000000     0.000500000000     0          
C871     C      0.113200000000     0.895000000000     0.949000000000     0          
C872     C      0.105000000000     0.864800000000     0.990700000000     0          
C873     C      0.119600000000     0.870300000000     0.965000000000     0          
C874     C      0.147500000000     0.844900000000     0.968100000000     0          
C875     C      0.163700000000     0.823800000000     0.957800000000     0          
C876     C      0.186500000000     0.800900000000     0.949100000000     0          
C877     C      0.188600000000     0.780200000000     0.970900000000     0          
C878     C      0.206600000000     0.801400000000     0.926700000000     0          
C879     C      0.211000000000     0.760000000000     0.970300000000     0          
C880     C      0.229000000000     0.781100000000     0.926200000000     0          
C881     C      0.204500000000     0.822100000000     0.904900000000     0          
C882     C      0.231200000000     0.760400000000     0.948000000000     0          
P883     P      0.220400000000     0.727600000000     0.996300000000     0          
C884     C      0.249200000000     0.781600000000     0.903800000000     0          
C885     C      0.224700000000     0.822500000000     0.882600000000     0          
C886     C      0.192400000000     0.726200000000     0.029700000000     0          
C887     C      0.202800000000     0.705200000000     0.964900000000     0          
C888     C      0.247000000000     0.802300000000     0.882000000000     0          
C889     C      0.191500000000     0.745300000000     0.052900000000     0          
C890     C      0.168900000000     0.708200000000     0.024000000000     0          
C891     C      0.216300000000     0.678200000000     0.963900000000     0          
C892     C      0.177200000000     0.709700000000     0.949800000000     0          
C893     C      0.167000000000     0.746600000000     0.070500000000     0          
C894     C      0.144400000000     0.709400000000     0.041500000000     0          
C895     C      0.204100000000     0.655800000000     0.947800000000     0          
C896     C      0.165000000000     0.687400000000     0.933700000000     0          
C897     C      0.143500000000     0.728600000000     0.064800000000     0          
C898     C      0.178400000000     0.660400000000     0.932700000000     0          
H899     H      0.086820000000     0.934470000000     0.945680000000     0          
H900     H      0.071870000000     0.879490000000     0.021620000000     0          
H901     H      0.125200000000     0.899550000000     0.927870000000     0          
H902     H      0.110300000000     0.844520000000     0.003800000000     0          
H903     H      0.172000000000     0.779800000000     0.989210000000     0          
H904     H      0.186200000000     0.838720000000     0.905350000000     0          
H905     H      0.249510000000     0.743790000000     0.947610000000     0          
H906     H      0.267550000000     0.765040000000     0.903330000000     0          
H907     H      0.223010000000     0.839460000000     0.864690000000     0          
H908     H      0.263520000000     0.802690000000     0.863610000000     0          
H909     H      0.210840000000     0.759970000000     0.057590000000     0          
H910     H      0.169730000000     0.692450000000     0.004960000000     0          
H911     H      0.237360000000     0.674450000000     0.976280000000     0          
H912     H      0.166100000000     0.731780000000     0.950590000000     0          
H913     H      0.166260000000     0.762390000000     0.089510000000     0          
H914     H      0.125100000000     0.694690000000     0.036770000000     0          
H915     H      0.215160000000     0.633710000000     0.946990000000     0          
H916     H      0.143970000000     0.691200000000     0.921270000000     0          
H917     H      0.123460000000     0.729580000000     0.079240000000     0          
H918     H      0.168350000000     0.642050000000     0.919530000000     0          
O919     O      0.079100000000     0.460100000000     0.492100000000     0          
O920     O      0.079800000000     0.507900000000     0.539900000000     0          
C921     C      0.064400000000     0.435500000000     0.489900000000     0          
C922     C      0.077500000000     0.408700000000     0.484500000000     0          
C923     C      0.092100000000     0.414200000000     0.458800000000     0          
C924     C      0.083900000000     0.384000000000     0.500500000000     0          
C925     C      0.113200000000     0.395000000000     0.449000000000     0          
C926     C      0.105000000000     0.364800000000     0.490700000000     0          
C927     C      0.119600000000     0.370300000000     0.465000000000     0          
C928     C      0.147500000000     0.344900000000     0.468100000000     0          
C929     C      0.163700000000     0.323800000000     0.457800000000     0          
C930     C      0.186500000000     0.300900000000     0.449100000000     0          
C931     C      0.188600000000     0.280200000000     0.470900000000     0          
C932     C      0.206600000000     0.301400000000     0.426700000000     0          
C933     C      0.211000000000     0.260000000000     0.470300000000     0          
C934     C      0.229000000000     0.281100000000     0.426200000000     0          
C935     C      0.204500000000     0.322100000000     0.404900000000     0          
C936     C      0.231200000000     0.260400000000     0.448000000000     0          
P937     P      0.220400000000     0.227600000000     0.496300000000     0          
C938     C      0.249200000000     0.281600000000     0.403800000000     0          
C939     C      0.224700000000     0.322500000000     0.382600000000     0          
C940     C      0.192400000000     0.226200000000     0.529700000000     0          
C941     C      0.202800000000     0.205200000000     0.464900000000     0          
C942     C      0.247000000000     0.302300000000     0.382000000000     0          
C943     C      0.191500000000     0.245300000000     0.552900000000     0          
C944     C      0.168900000000     0.208200000000     0.524000000000     0          
C945     C      0.216300000000     0.178200000000     0.463900000000     0          
C946     C      0.177200000000     0.209700000000     0.449800000000     0          
C947     C      0.167000000000     0.246600000000     0.570500000000     0          
C948     C      0.144400000000     0.209400000000     0.541500000000     0          
C949     C      0.204100000000     0.155800000000     0.447800000000     0          
C950     C      0.165000000000     0.187400000000     0.433700000000     0          
C951     C      0.143500000000     0.228600000000     0.564800000000     0          
C952     C      0.178400000000     0.160400000000     0.432700000000     0          
H953     H      0.086820000000     0.434470000000     0.445680000000     0          
H954     H      0.071870000000     0.379490000000     0.521620000000     0          
H955     H      0.125200000000     0.399550000000     0.427870000000     0          
H956     H      0.110300000000     0.344520000000     0.503800000000     0          
H957     H      0.172000000000     0.279800000000     0.489210000000     0          
H958     H      0.186200000000     0.338720000000     0.405350000000     0          
H959     H      0.249510000000     0.243790000000     0.447610000000     0          
H960     H      0.267550000000     0.265040000000     0.403330000000     0          
H961     H      0.223010000000     0.339460000000     0.364690000000     0          
H962     H      0.263520000000     0.302690000000     0.363610000000     0          
H963     H      0.210840000000     0.259970000000     0.557590000000     0          
H964     H      0.169730000000     0.192450000000     0.504960000000     0          
H965     H      0.237360000000     0.174450000000     0.476280000000     0          
H966     H      0.166100000000     0.231780000000     0.450590000000     0          
H967     H      0.166260000000     0.262390000000     0.589510000000     0          
H968     H      0.125100000000     0.194690000000     0.536770000000     0          
H969     H      0.215160000000     0.133710000000     0.446990000000     0          
H970     H      0.143970000000     0.191200000000     0.421270000000     0          
H971     H      0.123460000000     0.229580000000     0.579240000000     0          
H972     H      0.168350000000     0.142050000000     0.419530000000     0          
O973     O      0.579100000000     0.960100000000     0.492100000000     0          
O974     O      0.579800000000     0.007900000000     0.539900000000     0          
C975     C      0.564400000000     0.935500000000     0.489900000000     0          
C976     C      0.577500000000     0.908700000000     0.484500000000     0          
C977     C      0.592100000000     0.914200000000     0.458800000000     0          
C978     C      0.583900000000     0.884000000000     0.500500000000     0          
C979     C      0.613200000000     0.895000000000     0.449000000000     0          
C980     C      0.605000000000     0.864800000000     0.490700000000     0          
C981     C      0.619600000000     0.870300000000     0.465000000000     0          
C982     C      0.647500000000     0.844900000000     0.468100000000     0          
C983     C      0.663700000000     0.823800000000     0.457800000000     0          
C984     C      0.686500000000     0.800900000000     0.449100000000     0          
C985     C      0.688600000000     0.780200000000     0.470900000000     0          
C986     C      0.706600000000     0.801400000000     0.426700000000     0          
C987     C      0.711000000000     0.760000000000     0.470300000000     0          
C988     C      0.729000000000     0.781100000000     0.426200000000     0          
C989     C      0.704500000000     0.822100000000     0.404900000000     0          
C990     C      0.731200000000     0.760400000000     0.448000000000     0          
P991     P      0.720400000000     0.727600000000     0.496300000000     0          
C992     C      0.749200000000     0.781600000000     0.403800000000     0          
C993     C      0.724700000000     0.822500000000     0.382600000000     0          
C994     C      0.692400000000     0.726200000000     0.529700000000     0          
C995     C      0.702800000000     0.705200000000     0.464900000000     0          
C996     C      0.747000000000     0.802300000000     0.382000000000     0          
C997     C      0.691500000000     0.745300000000     0.552900000000     0          
C998     C      0.668900000000     0.708200000000     0.524000000000     0          
C999     C      0.716300000000     0.678200000000     0.463900000000     0          
C1000    C      0.677200000000     0.709700000000     0.449800000000     0          
C1001    C      0.667000000000     0.746600000000     0.570500000000     0          
C1002    C      0.644400000000     0.709400000000     0.541500000000     0          
C1003    C      0.704100000000     0.655800000000     0.447800000000     0          
C1004    C      0.665000000000     0.687400000000     0.433700000000     0          
C1005    C      0.643500000000     0.728600000000     0.564800000000     0          
C1006    C      0.678400000000     0.660400000000     0.432700000000     0          
H1007    H      0.586820000000     0.934470000000     0.445680000000     0          
H1008    H      0.571870000000     0.879490000000     0.521620000000     0          
H1009    H      0.625200000000     0.899550000000     0.427870000000     0          
H1010    H      0.610300000000     0.844520000000     0.503800000000     0          
H1011    H      0.672000000000     0.779800000000     0.489210000000     0          
H1012    H      0.686200000000     0.838720000000     0.405350000000     0          
H1013    H      0.749510000000     0.743790000000     0.447610000000     0          
H1014    H      0.767550000000     0.765040000000     0.403330000000     0          
H1015    H      0.723010000000     0.839460000000     0.364690000000     0          
H1016    H      0.763520000000     0.802690000000     0.363610000000     0          
H1017    H      0.710840000000     0.759970000000     0.557590000000     0          
H1018    H      0.669730000000     0.692450000000     0.504960000000     0          
H1019    H      0.737360000000     0.674450000000     0.476280000000     0          
H1020    H      0.666100000000     0.731780000000     0.450590000000     0          
H1021    H      0.666260000000     0.762390000000     0.589510000000     0          
H1022    H      0.625100000000     0.694690000000     0.536770000000     0          
H1023    H      0.715160000000     0.633710000000     0.446990000000     0          
H1024    H      0.643970000000     0.691200000000     0.421270000000     0          
H1025    H      0.623460000000     0.729580000000     0.579240000000     0          
H1026    H      0.668350000000     0.642050000000     0.419530000000     0          
O1027    O      0.579100000000     0.460100000000     0.992100000000     0          
O1028    O      0.579800000000     0.507900000000     0.039900000000     0          
C1029    C      0.564400000000     0.435500000000     0.989900000000     0          
C1030    C      0.577500000000     0.408700000000     0.984500000000     0          
C1031    C      0.592100000000     0.414200000000     0.958800000000     0          
C1032    C      0.583900000000     0.384000000000     0.000500000000     0          
C1033    C      0.613200000000     0.395000000000     0.949000000000     0          
C1034    C      0.605000000000     0.364800000000     0.990700000000     0          
C1035    C      0.619600000000     0.370300000000     0.965000000000     0          
C1036    C      0.647500000000     0.344900000000     0.968100000000     0          
C1037    C      0.663700000000     0.323800000000     0.957800000000     0          
C1038    C      0.686500000000     0.300900000000     0.949100000000     0          
C1039    C      0.688600000000     0.280200000000     0.970900000000     0          
C1040    C      0.706600000000     0.301400000000     0.926700000000     0          
C1041    C      0.711000000000     0.260000000000     0.970300000000     0          
C1042    C      0.729000000000     0.281100000000     0.926200000000     0          
C1043    C      0.704500000000     0.322100000000     0.904900000000     0          
C1044    C      0.731200000000     0.260400000000     0.948000000000     0          
P1045    P      0.720400000000     0.227600000000     0.996300000000     0          
C1046    C      0.749200000000     0.281600000000     0.903800000000     0          
C1047    C      0.724700000000     0.322500000000     0.882600000000     0          
C1048    C      0.692400000000     0.226200000000     0.029700000000     0          
C1049    C      0.702800000000     0.205200000000     0.964900000000     0          
C1050    C      0.747000000000     0.302300000000     0.882000000000     0          
C1051    C      0.691500000000     0.245300000000     0.052900000000     0          
C1052    C      0.668900000000     0.208200000000     0.024000000000     0          
C1053    C      0.716300000000     0.178200000000     0.963900000000     0          
C1054    C      0.677200000000     0.209700000000     0.949800000000     0          
C1055    C      0.667000000000     0.246600000000     0.070500000000     0          
C1056    C      0.644400000000     0.209400000000     0.041500000000     0          
C1057    C      0.704100000000     0.155800000000     0.947800000000     0          
C1058    C      0.665000000000     0.187400000000     0.933700000000     0          
C1059    C      0.643500000000     0.228600000000     0.064800000000     0          
C1060    C      0.678400000000     0.160400000000     0.932700000000     0          
H1061    H      0.586820000000     0.434470000000     0.945680000000     0          
H1062    H      0.571870000000     0.379490000000     0.021620000000     0          
H1063    H      0.625200000000     0.399550000000     0.927870000000     0          
H1064    H      0.610300000000     0.344520000000     0.003800000000     0          
H1065    H      0.672000000000     0.279800000000     0.989210000000     0          
H1066    H      0.686200000000     0.338720000000     0.905350000000     0          
H1067    H      0.749510000000     0.243790000000     0.947610000000     0          
H1068    H      0.767550000000     0.265040000000     0.903330000000     0          
H1069    H      0.723010000000     0.339460000000     0.864690000000     0          
H1070    H      0.763520000000     0.302690000000     0.863610000000     0          
H1071    H      0.710840000000     0.259970000000     0.057590000000     0          
H1072    H      0.669730000000     0.192450000000     0.004960000000     0          
H1073    H      0.737360000000     0.174450000000     0.976280000000     0          
H1074    H      0.666100000000     0.231780000000     0.950590000000     0          
H1075    H      0.666260000000     0.262390000000     0.089510000000     0          
H1076    H      0.625100000000     0.194690000000     0.036770000000     0          
H1077    H      0.715160000000     0.133710000000     0.946990000000     0          
H1078    H      0.643970000000     0.191200000000     0.921270000000     0          
H1079    H      0.623460000000     0.229580000000     0.079240000000     0          
H1080    H      0.668350000000     0.142050000000     0.919530000000     0          
O1081    O      0.079100000000     0.039900000000     0.007900000000     0          
O1082    O      0.079800000000     0.992100000000     0.960100000000     0          
C1083    C      0.064400000000     0.064500000000     0.010100000000     0          
C1084    C      0.077500000000     0.091300000000     0.015500000000     0          
C1085    C      0.092100000000     0.085800000000     0.041200000000     0          
C1086    C      0.083900000000     0.116000000000     0.999500000000     0          
C1087    C      0.113200000000     0.105000000000     0.051000000000     0          
C1088    C      0.105000000000     0.135200000000     0.009300000000     0          
C1089    C      0.119600000000     0.129700000000     0.035000000000     0          
C1090    C      0.147500000000     0.155100000000     0.031900000000     0          
C1091    C      0.163700000000     0.176200000000     0.042200000000     0          
C1092    C      0.186500000000     0.199100000000     0.050900000000     0          
C1093    C      0.188600000000     0.219800000000     0.029100000000     0          
C1094    C      0.206600000000     0.198600000000     0.073300000000     0          
C1095    C      0.211000000000     0.240000000000     0.029700000000     0          
C1096    C      0.229000000000     0.218900000000     0.073800000000     0          
C1097    C      0.204500000000     0.177900000000     0.095100000000     0          
C1098    C      0.231200000000     0.239600000000     0.052000000000     0          
P1099    P      0.220400000000     0.272400000000     0.003700000000     0          
C1100    C      0.249200000000     0.218400000000     0.096200000000     0          
C1101    C      0.224700000000     0.177500000000     0.117400000000     0          
C1102    C      0.192400000000     0.273800000000     0.970300000000     0          
C1103    C      0.202800000000     0.294800000000     0.035100000000     0          
C1104    C      0.247000000000     0.197700000000     0.118000000000     0          
C1105    C      0.191500000000     0.254700000000     0.947100000000     0          
C1106    C      0.168900000000     0.291800000000     0.976000000000     0          
C1107    C      0.216300000000     0.321800000000     0.036100000000     0          
C1108    C      0.177200000000     0.290300000000     0.050200000000     0          
C1109    C      0.167000000000     0.253400000000     0.929500000000     0          
C1110    C      0.144400000000     0.290600000000     0.958500000000     0          
C1111    C      0.204100000000     0.344200000000     0.052200000000     0          
C1112    C      0.165000000000     0.312600000000     0.066300000000     0          
C1113    C      0.143500000000     0.271400000000     0.935200000000     0          
C1114    C      0.178400000000     0.339600000000     0.067300000000     0          
H1115    H      0.086820000000     0.065530000000     0.054320000000     0          
H1116    H      0.071870000000     0.120510000000     0.978380000000     0          
H1117    H      0.125200000000     0.100450000000     0.072130000000     0          
H1118    H      0.110300000000     0.155480000000     0.996200000000     0          
H1119    H      0.172000000000     0.220200000000     0.010790000000     0          
H1120    H      0.186200000000     0.161280000000     0.094650000000     0          
H1121    H      0.249510000000     0.256210000000     0.052390000000     0          
H1122    H      0.267550000000     0.234960000000     0.096670000000     0          
H1123    H      0.223010000000     0.160540000000     0.135310000000     0          
H1124    H      0.263520000000     0.197310000000     0.136390000000     0          
H1125    H      0.210840000000     0.240030000000     0.942410000000     0          
H1126    H      0.169730000000     0.307550000000     0.995040000000     0          
H1127    H      0.237360000000     0.325550000000     0.023720000000     0          
H1128    H      0.166100000000     0.268220000000     0.049410000000     0          
H1129    H      0.166260000000     0.237610000000     0.910490000000     0          
H1130    H      0.125100000000     0.305310000000     0.963230000000     0          
H1131    H      0.215160000000     0.366290000000     0.053010000000     0          
H1132    H      0.143970000000     0.308800000000     0.078730000000     0          
H1133    H      0.123460000000     0.270420000000     0.920760000000     0          
H1134    H      0.168350000000     0.357950000000     0.080470000000     0          
O1135    O      0.079100000000     0.539900000000     0.507900000000     0          
O1136    O      0.079800000000     0.492100000000     0.460100000000     0          
C1137    C      0.064400000000     0.564500000000     0.510100000000     0          
C1138    C      0.077500000000     0.591300000000     0.515500000000     0          
C1139    C      0.092100000000     0.585800000000     0.541200000000     0          
C1140    C      0.083900000000     0.616000000000     0.499500000000     0          
C1141    C      0.113200000000     0.605000000000     0.551000000000     0          
C1142    C      0.105000000000     0.635200000000     0.509300000000     0          
C1143    C      0.119600000000     0.629700000000     0.535000000000     0          
C1144    C      0.147500000000     0.655100000000     0.531900000000     0          
C1145    C      0.163700000000     0.676200000000     0.542200000000     0          
C1146    C      0.186500000000     0.699100000000     0.550900000000     0          
C1147    C      0.188600000000     0.719800000000     0.529100000000     0          
C1148    C      0.206600000000     0.698600000000     0.573300000000     0          
C1149    C      0.211000000000     0.740000000000     0.529700000000     0          
C1150    C      0.229000000000     0.718900000000     0.573800000000     0          
C1151    C      0.204500000000     0.677900000000     0.595100000000     0          
C1152    C      0.231200000000     0.739600000000     0.552000000000     0          
P1153    P      0.220400000000     0.772400000000     0.503700000000     0          
C1154    C      0.249200000000     0.718400000000     0.596200000000     0          
C1155    C      0.224700000000     0.677500000000     0.617400000000     0          
C1156    C      0.192400000000     0.773800000000     0.470300000000     0          
C1157    C      0.202800000000     0.794800000000     0.535100000000     0          
C1158    C      0.247000000000     0.697700000000     0.618000000000     0          
C1159    C      0.191500000000     0.754700000000     0.447100000000     0          
C1160    C      0.168900000000     0.791800000000     0.476000000000     0          
C1161    C      0.216300000000     0.821800000000     0.536100000000     0          
C1162    C      0.177200000000     0.790300000000     0.550200000000     0          
C1163    C      0.167000000000     0.753400000000     0.429500000000     0          
C1164    C      0.144400000000     0.790600000000     0.458500000000     0          
C1165    C      0.204100000000     0.844200000000     0.552200000000     0          
C1166    C      0.165000000000     0.812600000000     0.566300000000     0          
C1167    C      0.143500000000     0.771400000000     0.435200000000     0          
C1168    C      0.178400000000     0.839600000000     0.567300000000     0          
H1169    H      0.086820000000     0.565530000000     0.554320000000     0          
H1170    H      0.071870000000     0.620510000000     0.478380000000     0          
H1171    H      0.125200000000     0.600450000000     0.572130000000     0          
H1172    H      0.110300000000     0.655480000000     0.496200000000     0          
H1173    H      0.172000000000     0.720200000000     0.510790000000     0          
H1174    H      0.186200000000     0.661280000000     0.594650000000     0          
H1175    H      0.249510000000     0.756210000000     0.552390000000     0          
H1176    H      0.267550000000     0.734960000000     0.596670000000     0          
H1177    H      0.223010000000     0.660540000000     0.635310000000     0          
H1178    H      0.263520000000     0.697310000000     0.636390000000     0          
H1179    H      0.210840000000     0.740030000000     0.442410000000     0          
H1180    H      0.169730000000     0.807550000000     0.495040000000     0          
H1181    H      0.237360000000     0.825550000000     0.523720000000     0          
H1182    H      0.166100000000     0.768220000000     0.549410000000     0          
H1183    H      0.166260000000     0.737610000000     0.410490000000     0          
H1184    H      0.125100000000     0.805310000000     0.463230000000     0          
H1185    H      0.215160000000     0.866290000000     0.553010000000     0          
H1186    H      0.143970000000     0.808800000000     0.578730000000     0          
H1187    H      0.123460000000     0.770420000000     0.420760000000     0          
H1188    H      0.168350000000     0.857950000000     0.580470000000     0          
O1189    O      0.579100000000     0.039900000000     0.507900000000     0          
O1190    O      0.579800000000     0.992100000000     0.460100000000     0          
C1191    C      0.564400000000     0.064500000000     0.510100000000     0          
C1192    C      0.577500000000     0.091300000000     0.515500000000     0          
C1193    C      0.592100000000     0.085800000000     0.541200000000     0          
C1194    C      0.583900000000     0.116000000000     0.499500000000     0          
C1195    C      0.613200000000     0.105000000000     0.551000000000     0          
C1196    C      0.605000000000     0.135200000000     0.509300000000     0          
C1197    C      0.619600000000     0.129700000000     0.535000000000     0          
C1198    C      0.647500000000     0.155100000000     0.531900000000     0          
C1199    C      0.663700000000     0.176200000000     0.542200000000     0          
C1200    C      0.686500000000     0.199100000000     0.550900000000     0          
C1201    C      0.688600000000     0.219800000000     0.529100000000     0          
C1202    C      0.706600000000     0.198600000000     0.573300000000     0          
C1203    C      0.711000000000     0.240000000000     0.529700000000     0          
C1204    C      0.729000000000     0.218900000000     0.573800000000     0          
C1205    C      0.704500000000     0.177900000000     0.595100000000     0          
C1206    C      0.731200000000     0.239600000000     0.552000000000     0          
P1207    P      0.720400000000     0.272400000000     0.503700000000     0          
C1208    C      0.749200000000     0.218400000000     0.596200000000     0          
C1209    C      0.724700000000     0.177500000000     0.617400000000     0          
C1210    C      0.692400000000     0.273800000000     0.470300000000     0          
C1211    C      0.702800000000     0.294800000000     0.535100000000     0          
C1212    C      0.747000000000     0.197700000000     0.618000000000     0          
C1213    C      0.691500000000     0.254700000000     0.447100000000     0          
C1214    C      0.668900000000     0.291800000000     0.476000000000     0          
C1215    C      0.716300000000     0.321800000000     0.536100000000     0          
C1216    C      0.677200000000     0.290300000000     0.550200000000     0          
C1217    C      0.667000000000     0.253400000000     0.429500000000     0          
C1218    C      0.644400000000     0.290600000000     0.458500000000     0          
C1219    C      0.704100000000     0.344200000000     0.552200000000     0          
C1220    C      0.665000000000     0.312600000000     0.566300000000     0          
C1221    C      0.643500000000     0.271400000000     0.435200000000     0          
C1222    C      0.678400000000     0.339600000000     0.567300000000     0          
H1223    H      0.586820000000     0.065530000000     0.554320000000     0          
H1224    H      0.571870000000     0.120510000000     0.478380000000     0          
H1225    H      0.625200000000     0.100450000000     0.572130000000     0          
H1226    H      0.610300000000     0.155480000000     0.496200000000     0          
H1227    H      0.672000000000     0.220200000000     0.510790000000     0          
H1228    H      0.686200000000     0.161280000000     0.594650000000     0          
H1229    H      0.749510000000     0.256210000000     0.552390000000     0          
H1230    H      0.767550000000     0.234960000000     0.596670000000     0          
H1231    H      0.723010000000     0.160540000000     0.635310000000     0          
H1232    H      0.763520000000     0.197310000000     0.636390000000     0          
H1233    H      0.710840000000     0.240030000000     0.442410000000     0          
H1234    H      0.669730000000     0.307550000000     0.495040000000     0          
H1235    H      0.737360000000     0.325550000000     0.523720000000     0          
H1236    H      0.666100000000     0.268220000000     0.549410000000     0          
H1237    H      0.666260000000     0.237610000000     0.410490000000     0          
H1238    H      0.625100000000     0.305310000000     0.463230000000     0          
H1239    H      0.715160000000     0.366290000000     0.553010000000     0          
H1240    H      0.643970000000     0.308800000000     0.578730000000     0          
H1241    H      0.623460000000     0.270420000000     0.420760000000     0          
H1242    H      0.668350000000     0.357950000000     0.580470000000     0          
O1243    O      0.579100000000     0.539900000000     0.007900000000     0          
O1244    O      0.579800000000     0.492100000000     0.960100000000     0          
C1245    C      0.564400000000     0.564500000000     0.010100000000     0          
C1246    C      0.577500000000     0.591300000000     0.015500000000     0          
C1247    C      0.592100000000     0.585800000000     0.041200000000     0          
C1248    C      0.583900000000     0.616000000000     0.999500000000     0          
C1249    C      0.613200000000     0.605000000000     0.051000000000     0          
C1250    C      0.605000000000     0.635200000000     0.009300000000     0          
C1251    C      0.619600000000     0.629700000000     0.035000000000     0          
C1252    C      0.647500000000     0.655100000000     0.031900000000     0          
C1253    C      0.663700000000     0.676200000000     0.042200000000     0          
C1254    C      0.686500000000     0.699100000000     0.050900000000     0          
C1255    C      0.688600000000     0.719800000000     0.029100000000     0          
C1256    C      0.706600000000     0.698600000000     0.073300000000     0          
C1257    C      0.711000000000     0.740000000000     0.029700000000     0          
C1258    C      0.729000000000     0.718900000000     0.073800000000     0          
C1259    C      0.704500000000     0.677900000000     0.095100000000     0          
C1260    C      0.731200000000     0.739600000000     0.052000000000     0          
P1261    P      0.720400000000     0.772400000000     0.003700000000     0          
C1262    C      0.749200000000     0.718400000000     0.096200000000     0          
C1263    C      0.724700000000     0.677500000000     0.117400000000     0          
C1264    C      0.692400000000     0.773800000000     0.970300000000     0          
C1265    C      0.702800000000     0.794800000000     0.035100000000     0          
C1266    C      0.747000000000     0.697700000000     0.118000000000     0          
C1267    C      0.691500000000     0.754700000000     0.947100000000     0          
C1268    C      0.668900000000     0.791800000000     0.976000000000     0          
C1269    C      0.716300000000     0.821800000000     0.036100000000     0          
C1270    C      0.677200000000     0.790300000000     0.050200000000     0          
C1271    C      0.667000000000     0.753400000000     0.929500000000     0          
C1272    C      0.644400000000     0.790600000000     0.958500000000     0          
C1273    C      0.704100000000     0.844200000000     0.052200000000     0          
C1274    C      0.665000000000     0.812600000000     0.066300000000     0          
C1275    C      0.643500000000     0.771400000000     0.935200000000     0          
C1276    C      0.678400000000     0.839600000000     0.067300000000     0          
H1277    H      0.586820000000     0.565530000000     0.054320000000     0          
H1278    H      0.571870000000     0.620510000000     0.978380000000     0          
H1279    H      0.625200000000     0.600450000000     0.072130000000     0          
H1280    H      0.610300000000     0.655480000000     0.996200000000     0          
H1281    H      0.672000000000     0.720200000000     0.010790000000     0          
H1282    H      0.686200000000     0.661280000000     0.094650000000     0          
H1283    H      0.749510000000     0.756210000000     0.052390000000     0          
H1284    H      0.767550000000     0.734960000000     0.096670000000     0          
H1285    H      0.723010000000     0.660540000000     0.135310000000     0          
H1286    H      0.763520000000     0.697310000000     0.136390000000     0          
H1287    H      0.710840000000     0.740030000000     0.942410000000     0          
H1288    H      0.669730000000     0.807550000000     0.995040000000     0          
H1289    H      0.737360000000     0.825550000000     0.023720000000     0          
H1290    H      0.666100000000     0.768220000000     0.049410000000     0          
H1291    H      0.666260000000     0.737610000000     0.910490000000     0          
H1292    H      0.625100000000     0.805310000000     0.963230000000     0          
H1293    H      0.715160000000     0.866290000000     0.053010000000     0          
H1294    H      0.643970000000     0.808800000000     0.078730000000     0          
H1295    H      0.623460000000     0.770420000000     0.920760000000     0          
H1296    H      0.668350000000     0.857950000000     0.080470000000     0          
O1297    O      0.920900000000     0.039900000000     0.992100000000     0          
O1298    O      0.920200000000     0.992100000000     0.039900000000     0          
C1299    C      0.935600000000     0.064500000000     0.989900000000     0          
C1300    C      0.922500000000     0.091300000000     0.984500000000     0          
C1301    C      0.907900000000     0.085800000000     0.958800000000     0          
C1302    C      0.916100000000     0.116000000000     0.000500000000     0          
C1303    C      0.886800000000     0.105000000000     0.949000000000     0          
C1304    C      0.895000000000     0.135200000000     0.990700000000     0          
C1305    C      0.880400000000     0.129700000000     0.965000000000     0          
C1306    C      0.852500000000     0.155100000000     0.968100000000     0          
C1307    C      0.836300000000     0.176200000000     0.957800000000     0          
C1308    C      0.813500000000     0.199100000000     0.949100000000     0          
C1309    C      0.811400000000     0.219800000000     0.970900000000     0          
C1310    C      0.793400000000     0.198600000000     0.926700000000     0          
C1311    C      0.789000000000     0.240000000000     0.970300000000     0          
C1312    C      0.771000000000     0.218900000000     0.926200000000     0          
C1313    C      0.795500000000     0.177900000000     0.904900000000     0          
C1314    C      0.768800000000     0.239600000000     0.948000000000     0          
P1315    P      0.779600000000     0.272400000000     0.996300000000     0          
C1316    C      0.750800000000     0.218400000000     0.903800000000     0          
C1317    C      0.775300000000     0.177500000000     0.882600000000     0          
C1318    C      0.807600000000     0.273800000000     0.029700000000     0          
C1319    C      0.797200000000     0.294800000000     0.964900000000     0          
C1320    C      0.753000000000     0.197700000000     0.882000000000     0          
C1321    C      0.808500000000     0.254700000000     0.052900000000     0          
C1322    C      0.831100000000     0.291800000000     0.024000000000     0          
C1323    C      0.783700000000     0.321800000000     0.963900000000     0          
C1324    C      0.822800000000     0.290300000000     0.949800000000     0          
C1325    C      0.833000000000     0.253400000000     0.070500000000     0          
C1326    C      0.855600000000     0.290600000000     0.041500000000     0          
C1327    C      0.795900000000     0.344200000000     0.947800000000     0          
C1328    C      0.835000000000     0.312600000000     0.933700000000     0          
C1329    C      0.856500000000     0.271400000000     0.064800000000     0          
C1330    C      0.821600000000     0.339600000000     0.932700000000     0          
H1331    H      0.913180000000     0.065530000000     0.945680000000     0          
H1332    H      0.928130000000     0.120510000000     0.021620000000     0          
H1333    H      0.874800000000     0.100450000000     0.927870000000     0          
H1334    H      0.889700000000     0.155480000000     0.003800000000     0          
H1335    H      0.828000000000     0.220200000000     0.989210000000     0          
H1336    H      0.813800000000     0.161280000000     0.905350000000     0          
H1337    H      0.750490000000     0.256210000000     0.947610000000     0          
H1338    H      0.732450000000     0.234960000000     0.903330000000     0          
H1339    H      0.776990000000     0.160540000000     0.864690000000     0          
H1340    H      0.736480000000     0.197310000000     0.863610000000     0          
H1341    H      0.789160000000     0.240030000000     0.057590000000     0          
H1342    H      0.830270000000     0.307550000000     0.004960000000     0          
H1343    H      0.762640000000     0.325550000000     0.976280000000     0          
H1344    H      0.833900000000     0.268220000000     0.950590000000     0          
H1345    H      0.833740000000     0.237610000000     0.089510000000     0          
H1346    H      0.874900000000     0.305310000000     0.036770000000     0          
H1347    H      0.784840000000     0.366290000000     0.946990000000     0          
H1348    H      0.856030000000     0.308800000000     0.921270000000     0          
H1349    H      0.876540000000     0.270420000000     0.079240000000     0          
H1350    H      0.831650000000     0.357950000000     0.919530000000     0          
O1351    O      0.920900000000     0.539900000000     0.492100000000     0          
O1352    O      0.920200000000     0.492100000000     0.539900000000     0          
C1353    C      0.935600000000     0.564500000000     0.489900000000     0          
C1354    C      0.922500000000     0.591300000000     0.484500000000     0          
C1355    C      0.907900000000     0.585800000000     0.458800000000     0          
C1356    C      0.916100000000     0.616000000000     0.500500000000     0          
C1357    C      0.886800000000     0.605000000000     0.449000000000     0          
C1358    C      0.895000000000     0.635200000000     0.490700000000     0          
C1359    C      0.880400000000     0.629700000000     0.465000000000     0          
C1360    C      0.852500000000     0.655100000000     0.468100000000     0          
C1361    C      0.836300000000     0.676200000000     0.457800000000     0          
C1362    C      0.813500000000     0.699100000000     0.449100000000     0          
C1363    C      0.811400000000     0.719800000000     0.470900000000     0          
C1364    C      0.793400000000     0.698600000000     0.426700000000     0          
C1365    C      0.789000000000     0.740000000000     0.470300000000     0          
C1366    C      0.771000000000     0.718900000000     0.426200000000     0          
C1367    C      0.795500000000     0.677900000000     0.404900000000     0          
C1368    C      0.768800000000     0.739600000000     0.448000000000     0          
P1369    P      0.779600000000     0.772400000000     0.496300000000     0          
C1370    C      0.750800000000     0.718400000000     0.403800000000     0          
C1371    C      0.775300000000     0.677500000000     0.382600000000     0          
C1372    C      0.807600000000     0.773800000000     0.529700000000     0          
C1373    C      0.797200000000     0.794800000000     0.464900000000     0          
C1374    C      0.753000000000     0.697700000000     0.382000000000     0          
C1375    C      0.808500000000     0.754700000000     0.552900000000     0          
C1376    C      0.831100000000     0.791800000000     0.524000000000     0          
C1377    C      0.783700000000     0.821800000000     0.463900000000     0          
C1378    C      0.822800000000     0.790300000000     0.449800000000     0          
C1379    C      0.833000000000     0.753400000000     0.570500000000     0          
C1380    C      0.855600000000     0.790600000000     0.541500000000     0          
C1381    C      0.795900000000     0.844200000000     0.447800000000     0          
C1382    C      0.835000000000     0.812600000000     0.433700000000     0          
C1383    C      0.856500000000     0.771400000000     0.564800000000     0          
C1384    C      0.821600000000     0.839600000000     0.432700000000     0          
H1385    H      0.913180000000     0.565530000000     0.445680000000     0          
H1386    H      0.928130000000     0.620510000000     0.521620000000     0          
H1387    H      0.874800000000     0.600450000000     0.427870000000     0          
H1388    H      0.889700000000     0.655480000000     0.503800000000     0          
H1389    H      0.828000000000     0.720200000000     0.489210000000     0          
H1390    H      0.813800000000     0.661280000000     0.405350000000     0          
H1391    H      0.750490000000     0.756210000000     0.447610000000     0          
H1392    H      0.732450000000     0.734960000000     0.403330000000     0          
H1393    H      0.776990000000     0.660540000000     0.364690000000     0          
H1394    H      0.736480000000     0.697310000000     0.363610000000     0          
H1395    H      0.789160000000     0.740030000000     0.557590000000     0          
H1396    H      0.830270000000     0.807550000000     0.504960000000     0          
H1397    H      0.762640000000     0.825550000000     0.476280000000     0          
H1398    H      0.833900000000     0.768220000000     0.450590000000     0          
H1399    H      0.833740000000     0.737610000000     0.589510000000     0          
H1400    H      0.874900000000     0.805310000000     0.536770000000     0          
H1401    H      0.784840000000     0.866290000000     0.446990000000     0          
H1402    H      0.856030000000     0.808800000000     0.421270000000     0          
H1403    H      0.876540000000     0.770420000000     0.579240000000     0          
H1404    H      0.831650000000     0.857950000000     0.419530000000     0          
O1405    O      0.420900000000     0.039900000000     0.492100000000     0          
O1406    O      0.420200000000     0.992100000000     0.539900000000     0          
C1407    C      0.435600000000     0.064500000000     0.489900000000     0          
C1408    C      0.422500000000     0.091300000000     0.484500000000     0          
C1409    C      0.407900000000     0.085800000000     0.458800000000     0          
C1410    C      0.416100000000     0.116000000000     0.500500000000     0          
C1411    C      0.386800000000     0.105000000000     0.449000000000     0          
C1412    C      0.395000000000     0.135200000000     0.490700000000     0          
C1413    C      0.380400000000     0.129700000000     0.465000000000     0          
C1414    C      0.352500000000     0.155100000000     0.468100000000     0          
C1415    C      0.336300000000     0.176200000000     0.457800000000     0          
C1416    C      0.313500000000     0.199100000000     0.449100000000     0          
C1417    C      0.311400000000     0.219800000000     0.470900000000     0          
C1418    C      0.293400000000     0.198600000000     0.426700000000     0          
C1419    C      0.289000000000     0.240000000000     0.470300000000     0          
C1420    C      0.271000000000     0.218900000000     0.426200000000     0          
C1421    C      0.295500000000     0.177900000000     0.404900000000     0          
C1422    C      0.268800000000     0.239600000000     0.448000000000     0          
P1423    P      0.279600000000     0.272400000000     0.496300000000     0          
C1424    C      0.250800000000     0.218400000000     0.403800000000     0          
C1425    C      0.275300000000     0.177500000000     0.382600000000     0          
C1426    C      0.307600000000     0.273800000000     0.529700000000     0          
C1427    C      0.297200000000     0.294800000000     0.464900000000     0          
C1428    C      0.253000000000     0.197700000000     0.382000000000     0          
C1429    C      0.308500000000     0.254700000000     0.552900000000     0          
C1430    C      0.331100000000     0.291800000000     0.524000000000     0          
C1431    C      0.283700000000     0.321800000000     0.463900000000     0          
C1432    C      0.322800000000     0.290300000000     0.449800000000     0          
C1433    C      0.333000000000     0.253400000000     0.570500000000     0          
C1434    C      0.355600000000     0.290600000000     0.541500000000     0          
C1435    C      0.295900000000     0.344200000000     0.447800000000     0          
C1436    C      0.335000000000     0.312600000000     0.433700000000     0          
C1437    C      0.356500000000     0.271400000000     0.564800000000     0          
C1438    C      0.321600000000     0.339600000000     0.432700000000     0          
H1439    H      0.413180000000     0.065530000000     0.445680000000     0          
H1440    H      0.428130000000     0.120510000000     0.521620000000     0          
H1441    H      0.374800000000     0.100450000000     0.427870000000     0          
H1442    H      0.389700000000     0.155480000000     0.503800000000     0          
H1443    H      0.328000000000     0.220200000000     0.489210000000     0          
H1444    H      0.313800000000     0.161280000000     0.405350000000     0          
H1445    H      0.250490000000     0.256210000000     0.447610000000     0          
H1446    H      0.232450000000     0.234960000000     0.403330000000     0          
H1447    H      0.276990000000     0.160540000000     0.364690000000     0          
H1448    H      0.236480000000     0.197310000000     0.363610000000     0          
H1449    H      0.289160000000     0.240030000000     0.557590000000     0          
H1450    H      0.330270000000     0.307550000000     0.504960000000     0          
H1451    H      0.262640000000     0.325550000000     0.476280000000     0          
H1452    H      0.333900000000     0.268220000000     0.450590000000     0          
H1453    H      0.333740000000     0.237610000000     0.589510000000     0          
H1454    H      0.374900000000     0.305310000000     0.536770000000     0          
H1455    H      0.284840000000     0.366290000000     0.446990000000     0          
H1456    H      0.356030000000     0.308800000000     0.421270000000     0          
H1457    H      0.376540000000     0.270420000000     0.579240000000     0          
H1458    H      0.331650000000     0.357950000000     0.419530000000     0          
O1459    O      0.420900000000     0.539900000000     0.992100000000     0          
O1460    O      0.420200000000     0.492100000000     0.039900000000     0          
C1461    C      0.435600000000     0.564500000000     0.989900000000     0          
C1462    C      0.422500000000     0.591300000000     0.984500000000     0          
C1463    C      0.407900000000     0.585800000000     0.958800000000     0          
C1464    C      0.416100000000     0.616000000000     0.000500000000     0          
C1465    C      0.386800000000     0.605000000000     0.949000000000     0          
C1466    C      0.395000000000     0.635200000000     0.990700000000     0          
C1467    C      0.380400000000     0.629700000000     0.965000000000     0          
C1468    C      0.352500000000     0.655100000000     0.968100000000     0          
C1469    C      0.336300000000     0.676200000000     0.957800000000     0          
C1470    C      0.313500000000     0.699100000000     0.949100000000     0          
C1471    C      0.311400000000     0.719800000000     0.970900000000     0          
C1472    C      0.293400000000     0.698600000000     0.926700000000     0          
C1473    C      0.289000000000     0.740000000000     0.970300000000     0          
C1474    C      0.271000000000     0.718900000000     0.926200000000     0          
C1475    C      0.295500000000     0.677900000000     0.904900000000     0          
C1476    C      0.268800000000     0.739600000000     0.948000000000     0          
P1477    P      0.279600000000     0.772400000000     0.996300000000     0          
C1478    C      0.250800000000     0.718400000000     0.903800000000     0          
C1479    C      0.275300000000     0.677500000000     0.882600000000     0          
C1480    C      0.307600000000     0.773800000000     0.029700000000     0          
C1481    C      0.297200000000     0.794800000000     0.964900000000     0          
C1482    C      0.253000000000     0.697700000000     0.882000000000     0          
C1483    C      0.308500000000     0.754700000000     0.052900000000     0          
C1484    C      0.331100000000     0.791800000000     0.024000000000     0          
C1485    C      0.283700000000     0.821800000000     0.963900000000     0          
C1486    C      0.322800000000     0.790300000000     0.949800000000     0          
C1487    C      0.333000000000     0.753400000000     0.070500000000     0          
C1488    C      0.355600000000     0.790600000000     0.041500000000     0          
C1489    C      0.295900000000     0.844200000000     0.947800000000     0          
C1490    C      0.335000000000     0.812600000000     0.933700000000     0          
C1491    C      0.356500000000     0.771400000000     0.064800000000     0          
C1492    C      0.321600000000     0.839600000000     0.932700000000     0          
H1493    H      0.413180000000     0.565530000000     0.945680000000     0          
H1494    H      0.428130000000     0.620510000000     0.021620000000     0          
H1495    H      0.374800000000     0.600450000000     0.927870000000     0          
H1496    H      0.389700000000     0.655480000000     0.003800000000     0          
H1497    H      0.328000000000     0.720200000000     0.989210000000     0          
H1498    H      0.313800000000     0.661280000000     0.905350000000     0          
H1499    H      0.250490000000     0.756210000000     0.947610000000     0          
H1500    H      0.232450000000     0.734960000000     0.903330000000     0          
H1501    H      0.276990000000     0.660540000000     0.864690000000     0          
H1502    H      0.236480000000     0.697310000000     0.863610000000     0          
H1503    H      0.289160000000     0.740030000000     0.057590000000     0          
H1504    H      0.330270000000     0.807550000000     0.004960000000     0          
H1505    H      0.262640000000     0.825550000000     0.976280000000     0          
H1506    H      0.333900000000     0.768220000000     0.950590000000     0          
H1507    H      0.333740000000     0.737610000000     0.089510000000     0          
H1508    H      0.374900000000     0.805310000000     0.036770000000     0          
H1509    H      0.284840000000     0.866290000000     0.946990000000     0          
H1510    H      0.356030000000     0.808800000000     0.921270000000     0          
H1511    H      0.376540000000     0.770420000000     0.079240000000     0          
H1512    H      0.331650000000     0.857950000000     0.919530000000     0          
O1513    O      0.920900000000     0.960100000000     0.007900000000     0          
O1514    O      0.920200000000     0.007900000000     0.960100000000     0          
C1515    C      0.935600000000     0.935500000000     0.010100000000     0          
C1516    C      0.922500000000     0.908700000000     0.015500000000     0          
C1517    C      0.907900000000     0.914200000000     0.041200000000     0          
C1518    C      0.916100000000     0.884000000000     0.999500000000     0          
C1519    C      0.886800000000     0.895000000000     0.051000000000     0          
C1520    C      0.895000000000     0.864800000000     0.009300000000     0          
C1521    C      0.880400000000     0.870300000000     0.035000000000     0          
C1522    C      0.852500000000     0.844900000000     0.031900000000     0          
C1523    C      0.836300000000     0.823800000000     0.042200000000     0          
C1524    C      0.813500000000     0.800900000000     0.050900000000     0          
C1525    C      0.811400000000     0.780200000000     0.029100000000     0          
C1526    C      0.793400000000     0.801400000000     0.073300000000     0          
C1527    C      0.789000000000     0.760000000000     0.029700000000     0          
C1528    C      0.771000000000     0.781100000000     0.073800000000     0          
C1529    C      0.795500000000     0.822100000000     0.095100000000     0          
C1530    C      0.768800000000     0.760400000000     0.052000000000     0          
P1531    P      0.779600000000     0.727600000000     0.003700000000     0          
C1532    C      0.750800000000     0.781600000000     0.096200000000     0          
C1533    C      0.775300000000     0.822500000000     0.117400000000     0          
C1534    C      0.807600000000     0.726200000000     0.970300000000     0          
C1535    C      0.797200000000     0.705200000000     0.035100000000     0          
C1536    C      0.753000000000     0.802300000000     0.118000000000     0          
C1537    C      0.808500000000     0.745300000000     0.947100000000     0          
C1538    C      0.831100000000     0.708200000000     0.976000000000     0          
C1539    C      0.783700000000     0.678200000000     0.036100000000     0          
C1540    C      0.822800000000     0.709700000000     0.050200000000     0          
C1541    C      0.833000000000     0.746600000000     0.929500000000     0          
C1542    C      0.855600000000     0.709400000000     0.958500000000     0          
C1543    C      0.795900000000     0.655800000000     0.052200000000     0          
C1544    C      0.835000000000     0.687400000000     0.066300000000     0          
C1545    C      0.856500000000     0.728600000000     0.935200000000     0          
C1546    C      0.821600000000     0.660400000000     0.067300000000     0          
H1547    H      0.913180000000     0.934470000000     0.054320000000     0          
H1548    H      0.928130000000     0.879490000000     0.978380000000     0          
H1549    H      0.874800000000     0.899550000000     0.072130000000     0          
H1550    H      0.889700000000     0.844520000000     0.996200000000     0          
H1551    H      0.828000000000     0.779800000000     0.010790000000     0          
H1552    H      0.813800000000     0.838720000000     0.094650000000     0          
H1553    H      0.750490000000     0.743790000000     0.052390000000     0          
H1554    H      0.732450000000     0.765040000000     0.096670000000     0          
H1555    H      0.776990000000     0.839460000000     0.135310000000     0          
H1556    H      0.736480000000     0.802690000000     0.136390000000     0          
H1557    H      0.789160000000     0.759970000000     0.942410000000     0          
H1558    H      0.830270000000     0.692450000000     0.995040000000     0          
H1559    H      0.762640000000     0.674450000000     0.023720000000     0          
H1560    H      0.833900000000     0.731780000000     0.049410000000     0          
H1561    H      0.833740000000     0.762390000000     0.910490000000     0          
H1562    H      0.874900000000     0.694690000000     0.963230000000     0          
H1563    H      0.784840000000     0.633710000000     0.053010000000     0          
H1564    H      0.856030000000     0.691200000000     0.078730000000     0          
H1565    H      0.876540000000     0.729580000000     0.920760000000     0          
H1566    H      0.831650000000     0.642050000000     0.080470000000     0          
O1567    O      0.920900000000     0.460100000000     0.507900000000     0          
O1568    O      0.920200000000     0.507900000000     0.460100000000     0          
C1569    C      0.935600000000     0.435500000000     0.510100000000     0          
C1570    C      0.922500000000     0.408700000000     0.515500000000     0          
C1571    C      0.907900000000     0.414200000000     0.541200000000     0          
C1572    C      0.916100000000     0.384000000000     0.499500000000     0          
C1573    C      0.886800000000     0.395000000000     0.551000000000     0          
C1574    C      0.895000000000     0.364800000000     0.509300000000     0          
C1575    C      0.880400000000     0.370300000000     0.535000000000     0          
C1576    C      0.852500000000     0.344900000000     0.531900000000     0          
C1577    C      0.836300000000     0.323800000000     0.542200000000     0          
C1578    C      0.813500000000     0.300900000000     0.550900000000     0          
C1579    C      0.811400000000     0.280200000000     0.529100000000     0          
C1580    C      0.793400000000     0.301400000000     0.573300000000     0          
C1581    C      0.789000000000     0.260000000000     0.529700000000     0          
C1582    C      0.771000000000     0.281100000000     0.573800000000     0          
C1583    C      0.795500000000     0.322100000000     0.595100000000     0          
C1584    C      0.768800000000     0.260400000000     0.552000000000     0          
P1585    P      0.779600000000     0.227600000000     0.503700000000     0          
C1586    C      0.750800000000     0.281600000000     0.596200000000     0          
C1587    C      0.775300000000     0.322500000000     0.617400000000     0          
C1588    C      0.807600000000     0.226200000000     0.470300000000     0          
C1589    C      0.797200000000     0.205200000000     0.535100000000     0          
C1590    C      0.753000000000     0.302300000000     0.618000000000     0          
C1591    C      0.808500000000     0.245300000000     0.447100000000     0          
C1592    C      0.831100000000     0.208200000000     0.476000000000     0          
C1593    C      0.783700000000     0.178200000000     0.536100000000     0          
C1594    C      0.822800000000     0.209700000000     0.550200000000     0          
C1595    C      0.833000000000     0.246600000000     0.429500000000     0          
C1596    C      0.855600000000     0.209400000000     0.458500000000     0          
C1597    C      0.795900000000     0.155800000000     0.552200000000     0          
C1598    C      0.835000000000     0.187400000000     0.566300000000     0          
C1599    C      0.856500000000     0.228600000000     0.435200000000     0          
C1600    C      0.821600000000     0.160400000000     0.567300000000     0          
H1601    H      0.913180000000     0.434470000000     0.554320000000     0          
H1602    H      0.928130000000     0.379490000000     0.478380000000     0          
H1603    H      0.874800000000     0.399550000000     0.572130000000     0          
H1604    H      0.889700000000     0.344520000000     0.496200000000     0          
H1605    H      0.828000000000     0.279800000000     0.510790000000     0          
H1606    H      0.813800000000     0.338720000000     0.594650000000     0          
H1607    H      0.750490000000     0.243790000000     0.552390000000     0          
H1608    H      0.732450000000     0.265040000000     0.596670000000     0          
H1609    H      0.776990000000     0.339460000000     0.635310000000     0          
H1610    H      0.736480000000     0.302690000000     0.636390000000     0          
H1611    H      0.789160000000     0.259970000000     0.442410000000     0          
H1612    H      0.830270000000     0.192450000000     0.495040000000     0          
H1613    H      0.762640000000     0.174450000000     0.523720000000     0          
H1614    H      0.833900000000     0.231780000000     0.549410000000     0          
H1615    H      0.833740000000     0.262390000000     0.410490000000     0          
H1616    H      0.874900000000     0.194690000000     0.463230000000     0          
H1617    H      0.784840000000     0.133710000000     0.553010000000     0          
H1618    H      0.856030000000     0.191200000000     0.578730000000     0          
H1619    H      0.876540000000     0.229580000000     0.420760000000     0          
H1620    H      0.831650000000     0.142050000000     0.580470000000     0          
O1621    O      0.420900000000     0.960100000000     0.507900000000     0          
O1622    O      0.420200000000     0.007900000000     0.460100000000     0          
C1623    C      0.435600000000     0.935500000000     0.510100000000     0          
C1624    C      0.422500000000     0.908700000000     0.515500000000     0          
C1625    C      0.407900000000     0.914200000000     0.541200000000     0          
C1626    C      0.416100000000     0.884000000000     0.499500000000     0          
C1627    C      0.386800000000     0.895000000000     0.551000000000     0          
C1628    C      0.395000000000     0.864800000000     0.509300000000     0          
C1629    C      0.380400000000     0.870300000000     0.535000000000     0          
C1630    C      0.352500000000     0.844900000000     0.531900000000     0          
C1631    C      0.336300000000     0.823800000000     0.542200000000     0          
C1632    C      0.313500000000     0.800900000000     0.550900000000     0          
C1633    C      0.311400000000     0.780200000000     0.529100000000     0          
C1634    C      0.293400000000     0.801400000000     0.573300000000     0          
C1635    C      0.289000000000     0.760000000000     0.529700000000     0          
C1636    C      0.271000000000     0.781100000000     0.573800000000     0          
C1637    C      0.295500000000     0.822100000000     0.595100000000     0          
C1638    C      0.268800000000     0.760400000000     0.552000000000     0          
P1639    P      0.279600000000     0.727600000000     0.503700000000     0          
C1640    C      0.250800000000     0.781600000000     0.596200000000     0          
C1641    C      0.275300000000     0.822500000000     0.617400000000     0          
C1642    C      0.307600000000     0.726200000000     0.470300000000     0          
C1643    C      0.297200000000     0.705200000000     0.535100000000     0          
C1644    C      0.253000000000     0.802300000000     0.618000000000     0          
C1645    C      0.308500000000     0.745300000000     0.447100000000     0          
C1646    C      0.331100000000     0.708200000000     0.476000000000     0          
C1647    C      0.283700000000     0.678200000000     0.536100000000     0          
C1648    C      0.322800000000     0.709700000000     0.550200000000     0          
C1649    C      0.333000000000     0.746600000000     0.429500000000     0          
C1650    C      0.355600000000     0.709400000000     0.458500000000     0          
C1651    C      0.295900000000     0.655800000000     0.552200000000     0          
C1652    C      0.335000000000     0.687400000000     0.566300000000     0          
C1653    C      0.356500000000     0.728600000000     0.435200000000     0          
C1654    C      0.321600000000     0.660400000000     0.567300000000     0          
H1655    H      0.413180000000     0.934470000000     0.554320000000     0          
H1656    H      0.428130000000     0.879490000000     0.478380000000     0          
H1657    H      0.374800000000     0.899550000000     0.572130000000     0          
H1658    H      0.389700000000     0.844520000000     0.496200000000     0          
H1659    H      0.328000000000     0.779800000000     0.510790000000     0          
H1660    H      0.313800000000     0.838720000000     0.594650000000     0          
H1661    H      0.250490000000     0.743790000000     0.552390000000     0          
H1662    H      0.232450000000     0.765040000000     0.596670000000     0          
H1663    H      0.276990000000     0.839460000000     0.635310000000     0          
H1664    H      0.236480000000     0.802690000000     0.636390000000     0          
H1665    H      0.289160000000     0.759970000000     0.442410000000     0          
H1666    H      0.330270000000     0.692450000000     0.495040000000     0          
H1667    H      0.262640000000     0.674450000000     0.523720000000     0          
H1668    H      0.333900000000     0.731780000000     0.549410000000     0          
H1669    H      0.333740000000     0.762390000000     0.410490000000     0          
H1670    H      0.374900000000     0.694690000000     0.463230000000     0          
H1671    H      0.284840000000     0.633710000000     0.553010000000     0          
H1672    H      0.356030000000     0.691200000000     0.578730000000     0          
H1673    H      0.376540000000     0.729580000000     0.420760000000     0          
H1674    H      0.331650000000     0.642050000000     0.580470000000     0          
O1675    O      0.420900000000     0.460100000000     0.007900000000     0          
O1676    O      0.420200000000     0.507900000000     0.960100000000     0          
C1677    C      0.435600000000     0.435500000000     0.010100000000     0          
C1678    C      0.422500000000     0.408700000000     0.015500000000     0          
C1679    C      0.407900000000     0.414200000000     0.041200000000     0          
C1680    C      0.416100000000     0.384000000000     0.999500000000     0          
C1681    C      0.386800000000     0.395000000000     0.051000000000     0          
C1682    C      0.395000000000     0.364800000000     0.009300000000     0          
C1683    C      0.380400000000     0.370300000000     0.035000000000     0          
C1684    C      0.352500000000     0.344900000000     0.031900000000     0          
C1685    C      0.336300000000     0.323800000000     0.042200000000     0          
C1686    C      0.313500000000     0.300900000000     0.050900000000     0          
C1687    C      0.311400000000     0.280200000000     0.029100000000     0          
C1688    C      0.293400000000     0.301400000000     0.073300000000     0          
C1689    C      0.289000000000     0.260000000000     0.029700000000     0          
C1690    C      0.271000000000     0.281100000000     0.073800000000     0          
C1691    C      0.295500000000     0.322100000000     0.095100000000     0          
C1692    C      0.268800000000     0.260400000000     0.052000000000     0          
P1693    P      0.279600000000     0.227600000000     0.003700000000     0          
C1694    C      0.250800000000     0.281600000000     0.096200000000     0          
C1695    C      0.275300000000     0.322500000000     0.117400000000     0          
C1696    C      0.307600000000     0.226200000000     0.970300000000     0          
C1697    C      0.297200000000     0.205200000000     0.035100000000     0          
C1698    C      0.253000000000     0.302300000000     0.118000000000     0          
C1699    C      0.308500000000     0.245300000000     0.947100000000     0          
C1700    C      0.331100000000     0.208200000000     0.976000000000     0          
C1701    C      0.283700000000     0.178200000000     0.036100000000     0          
C1702    C      0.322800000000     0.209700000000     0.050200000000     0          
C1703    C      0.333000000000     0.246600000000     0.929500000000     0          
C1704    C      0.355600000000     0.209400000000     0.958500000000     0          
C1705    C      0.295900000000     0.155800000000     0.052200000000     0          
C1706    C      0.335000000000     0.187400000000     0.066300000000     0          
C1707    C      0.356500000000     0.228600000000     0.935200000000     0          
C1708    C      0.321600000000     0.160400000000     0.067300000000     0          
H1709    H      0.413180000000     0.434470000000     0.054320000000     0          
H1710    H      0.428130000000     0.379490000000     0.978380000000     0          
H1711    H      0.374800000000     0.399550000000     0.072130000000     0          
H1712    H      0.389700000000     0.344520000000     0.996200000000     0          
H1713    H      0.328000000000     0.279800000000     0.010790000000     0          
H1714    H      0.313800000000     0.338720000000     0.094650000000     0          
H1715    H      0.250490000000     0.243790000000     0.052390000000     0          
H1716    H      0.232450000000     0.265040000000     0.096670000000     0          
H1717    H      0.276990000000     0.339460000000     0.135310000000     0          
H1718    H      0.236480000000     0.302690000000     0.136390000000     0          
H1719    H      0.289160000000     0.259970000000     0.942410000000     0          
H1720    H      0.330270000000     0.192450000000     0.995040000000     0          
H1721    H      0.262640000000     0.174450000000     0.023720000000     0          
H1722    H      0.333900000000     0.231780000000     0.049410000000     0          
H1723    H      0.333740000000     0.262390000000     0.910490000000     0          
H1724    H      0.374900000000     0.194690000000     0.963230000000     0          
H1725    H      0.284840000000     0.133710000000     0.053010000000     0          
H1726    H      0.356030000000     0.191200000000     0.078730000000     0          
H1727    H      0.376540000000     0.229580000000     0.920760000000     0          
H1728    H      0.331650000000     0.142050000000     0.080470000000     0          
O1729    O      0.992100000000     0.079100000000     0.960100000000     0          
O1730    O      0.039900000000     0.079800000000     0.007900000000     0          
C1731    C      0.989900000000     0.064400000000     0.935500000000     0          
C1732    C      0.984500000000     0.077500000000     0.908700000000     0          
C1733    C      0.958800000000     0.092100000000     0.914200000000     0          
C1734    C      0.000500000000     0.083900000000     0.884000000000     0          
C1735    C      0.949000000000     0.113200000000     0.895000000000     0          
C1736    C      0.990700000000     0.105000000000     0.864800000000     0          
C1737    C      0.965000000000     0.119600000000     0.870300000000     0          
C1738    C      0.968100000000     0.147500000000     0.844900000000     0          
C1739    C      0.957800000000     0.163700000000     0.823800000000     0          
C1740    C      0.949100000000     0.186500000000     0.800900000000     0          
C1741    C      0.970900000000     0.188600000000     0.780200000000     0          
C1742    C      0.926700000000     0.206600000000     0.801400000000     0          
C1743    C      0.970300000000     0.211000000000     0.760000000000     0          
C1744    C      0.926200000000     0.229000000000     0.781100000000     0          
C1745    C      0.904900000000     0.204500000000     0.822100000000     0          
C1746    C      0.948000000000     0.231200000000     0.760400000000     0          
P1747    P      0.996300000000     0.220400000000     0.727600000000     0          
C1748    C      0.903800000000     0.249200000000     0.781600000000     0          
C1749    C      0.882600000000     0.224700000000     0.822500000000     0          
C1750    C      0.029700000000     0.192400000000     0.726200000000     0          
C1751    C      0.964900000000     0.202800000000     0.705200000000     0          
C1752    C      0.882000000000     0.247000000000     0.802300000000     0          
C1753    C      0.052900000000     0.191500000000     0.745300000000     0          
C1754    C      0.024000000000     0.168900000000     0.708200000000     0          
C1755    C      0.963900000000     0.216300000000     0.678200000000     0          
C1756    C      0.949800000000     0.177200000000     0.709700000000     0          
C1757    C      0.070500000000     0.167000000000     0.746600000000     0          
C1758    C      0.041500000000     0.144400000000     0.709400000000     0          
C1759    C      0.947800000000     0.204100000000     0.655800000000     0          
C1760    C      0.933700000000     0.165000000000     0.687400000000     0          
C1761    C      0.064800000000     0.143500000000     0.728600000000     0          
C1762    C      0.932700000000     0.178400000000     0.660400000000     0          
H1763    H      0.945680000000     0.086820000000     0.934470000000     0          
H1764    H      0.021620000000     0.071870000000     0.879490000000     0          
H1765    H      0.927870000000     0.125200000000     0.899550000000     0          
H1766    H      0.003800000000     0.110300000000     0.844520000000     0          
H1767    H      0.989210000000     0.172000000000     0.779800000000     0          
H1768    H      0.905350000000     0.186200000000     0.838720000000     0          
H1769    H      0.947610000000     0.249510000000     0.743790000000     0          
H1770    H      0.903330000000     0.267550000000     0.765040000000     0          
H1771    H      0.864690000000     0.223010000000     0.839460000000     0          
H1772    H      0.863610000000     0.263520000000     0.802690000000     0          
H1773    H      0.057590000000     0.210840000000     0.759970000000     0          
H1774    H      0.004960000000     0.169730000000     0.692450000000     0          
H1775    H      0.976280000000     0.237360000000     0.674450000000     0          
H1776    H      0.950590000000     0.166100000000     0.731780000000     0          
H1777    H      0.089510000000     0.166260000000     0.762390000000     0          
H1778    H      0.036770000000     0.125100000000     0.694690000000     0          
H1779    H      0.946990000000     0.215160000000     0.633710000000     0          
H1780    H      0.921270000000     0.143970000000     0.691200000000     0          
H1781    H      0.079240000000     0.123460000000     0.729580000000     0          
H1782    H      0.919530000000     0.168350000000     0.642050000000     0          
O1783    O      0.992100000000     0.579100000000     0.460100000000     0          
O1784    O      0.039900000000     0.579800000000     0.507900000000     0          
C1785    C      0.989900000000     0.564400000000     0.435500000000     0          
C1786    C      0.984500000000     0.577500000000     0.408700000000     0          
C1787    C      0.958800000000     0.592100000000     0.414200000000     0          
C1788    C      0.000500000000     0.583900000000     0.384000000000     0          
C1789    C      0.949000000000     0.613200000000     0.395000000000     0          
C1790    C      0.990700000000     0.605000000000     0.364800000000     0          
C1791    C      0.965000000000     0.619600000000     0.370300000000     0          
C1792    C      0.968100000000     0.647500000000     0.344900000000     0          
C1793    C      0.957800000000     0.663700000000     0.323800000000     0          
C1794    C      0.949100000000     0.686500000000     0.300900000000     0          
C1795    C      0.970900000000     0.688600000000     0.280200000000     0          
C1796    C      0.926700000000     0.706600000000     0.301400000000     0          
C1797    C      0.970300000000     0.711000000000     0.260000000000     0          
C1798    C      0.926200000000     0.729000000000     0.281100000000     0          
C1799    C      0.904900000000     0.704500000000     0.322100000000     0          
C1800    C      0.948000000000     0.731200000000     0.260400000000     0          
P1801    P      0.996300000000     0.720400000000     0.227600000000     0          
C1802    C      0.903800000000     0.749200000000     0.281600000000     0          
C1803    C      0.882600000000     0.724700000000     0.322500000000     0          
C1804    C      0.029700000000     0.692400000000     0.226200000000     0          
C1805    C      0.964900000000     0.702800000000     0.205200000000     0          
C1806    C      0.882000000000     0.747000000000     0.302300000000     0          
C1807    C      0.052900000000     0.691500000000     0.245300000000     0          
C1808    C      0.024000000000     0.668900000000     0.208200000000     0          
C1809    C      0.963900000000     0.716300000000     0.178200000000     0          
C1810    C      0.949800000000     0.677200000000     0.209700000000     0          
C1811    C      0.070500000000     0.667000000000     0.246600000000     0          
C1812    C      0.041500000000     0.644400000000     0.209400000000     0          
C1813    C      0.947800000000     0.704100000000     0.155800000000     0          
C1814    C      0.933700000000     0.665000000000     0.187400000000     0          
C1815    C      0.064800000000     0.643500000000     0.228600000000     0          
C1816    C      0.932700000000     0.678400000000     0.160400000000     0          
H1817    H      0.945680000000     0.586820000000     0.434470000000     0          
H1818    H      0.021620000000     0.571870000000     0.379490000000     0          
H1819    H      0.927870000000     0.625200000000     0.399550000000     0          
H1820    H      0.003800000000     0.610300000000     0.344520000000     0          
H1821    H      0.989210000000     0.672000000000     0.279800000000     0          
H1822    H      0.905350000000     0.686200000000     0.338720000000     0          
H1823    H      0.947610000000     0.749510000000     0.243790000000     0          
H1824    H      0.903330000000     0.767550000000     0.265040000000     0          
H1825    H      0.864690000000     0.723010000000     0.339460000000     0          
H1826    H      0.863610000000     0.763520000000     0.302690000000     0          
H1827    H      0.057590000000     0.710840000000     0.259970000000     0          
H1828    H      0.004960000000     0.669730000000     0.192450000000     0          
H1829    H      0.976280000000     0.737360000000     0.174450000000     0          
H1830    H      0.950590000000     0.666100000000     0.231780000000     0          
H1831    H      0.089510000000     0.666260000000     0.262390000000     0          
H1832    H      0.036770000000     0.625100000000     0.194690000000     0          
H1833    H      0.946990000000     0.715160000000     0.133710000000     0          
H1834    H      0.921270000000     0.643970000000     0.191200000000     0          
H1835    H      0.079240000000     0.623460000000     0.229580000000     0          
H1836    H      0.919530000000     0.668350000000     0.142050000000     0          
O1837    O      0.492100000000     0.079100000000     0.460100000000     0          
O1838    O      0.539900000000     0.079800000000     0.507900000000     0          
C1839    C      0.489900000000     0.064400000000     0.435500000000     0          
C1840    C      0.484500000000     0.077500000000     0.408700000000     0          
C1841    C      0.458800000000     0.092100000000     0.414200000000     0          
C1842    C      0.500500000000     0.083900000000     0.384000000000     0          
C1843    C      0.449000000000     0.113200000000     0.395000000000     0          
C1844    C      0.490700000000     0.105000000000     0.364800000000     0          
C1845    C      0.465000000000     0.119600000000     0.370300000000     0          
C1846    C      0.468100000000     0.147500000000     0.344900000000     0          
C1847    C      0.457800000000     0.163700000000     0.323800000000     0          
C1848    C      0.449100000000     0.186500000000     0.300900000000     0          
C1849    C      0.470900000000     0.188600000000     0.280200000000     0          
C1850    C      0.426700000000     0.206600000000     0.301400000000     0          
C1851    C      0.470300000000     0.211000000000     0.260000000000     0          
C1852    C      0.426200000000     0.229000000000     0.281100000000     0          
C1853    C      0.404900000000     0.204500000000     0.322100000000     0          
C1854    C      0.448000000000     0.231200000000     0.260400000000     0          
P1855    P      0.496300000000     0.220400000000     0.227600000000     0          
C1856    C      0.403800000000     0.249200000000     0.281600000000     0          
C1857    C      0.382600000000     0.224700000000     0.322500000000     0          
C1858    C      0.529700000000     0.192400000000     0.226200000000     0          
C1859    C      0.464900000000     0.202800000000     0.205200000000     0          
C1860    C      0.382000000000     0.247000000000     0.302300000000     0          
C1861    C      0.552900000000     0.191500000000     0.245300000000     0          
C1862    C      0.524000000000     0.168900000000     0.208200000000     0          
C1863    C      0.463900000000     0.216300000000     0.178200000000     0          
C1864    C      0.449800000000     0.177200000000     0.209700000000     0          
C1865    C      0.570500000000     0.167000000000     0.246600000000     0          
C1866    C      0.541500000000     0.144400000000     0.209400000000     0          
C1867    C      0.447800000000     0.204100000000     0.155800000000     0          
C1868    C      0.433700000000     0.165000000000     0.187400000000     0          
C1869    C      0.564800000000     0.143500000000     0.228600000000     0          
C1870    C      0.432700000000     0.178400000000     0.160400000000     0          
H1871    H      0.445680000000     0.086820000000     0.434470000000     0          
H1872    H      0.521620000000     0.071870000000     0.379490000000     0          
H1873    H      0.427870000000     0.125200000000     0.399550000000     0          
H1874    H      0.503800000000     0.110300000000     0.344520000000     0          
H1875    H      0.489210000000     0.172000000000     0.279800000000     0          
H1876    H      0.405350000000     0.186200000000     0.338720000000     0          
H1877    H      0.447610000000     0.249510000000     0.243790000000     0          
H1878    H      0.403330000000     0.267550000000     0.265040000000     0          
H1879    H      0.364690000000     0.223010000000     0.339460000000     0          
H1880    H      0.363610000000     0.263520000000     0.302690000000     0          
H1881    H      0.557590000000     0.210840000000     0.259970000000     0          
H1882    H      0.504960000000     0.169730000000     0.192450000000     0          
H1883    H      0.476280000000     0.237360000000     0.174450000000     0          
H1884    H      0.450590000000     0.166100000000     0.231780000000     0          
H1885    H      0.589510000000     0.166260000000     0.262390000000     0          
H1886    H      0.536770000000     0.125100000000     0.194690000000     0          
H1887    H      0.446990000000     0.215160000000     0.133710000000     0          
H1888    H      0.421270000000     0.143970000000     0.191200000000     0          
H1889    H      0.579240000000     0.123460000000     0.229580000000     0          
H1890    H      0.419530000000     0.168350000000     0.142050000000     0          
O1891    O      0.492100000000     0.579100000000     0.960100000000     0          
O1892    O      0.539900000000     0.579800000000     0.007900000000     0          
C1893    C      0.489900000000     0.564400000000     0.935500000000     0          
C1894    C      0.484500000000     0.577500000000     0.908700000000     0          
C1895    C      0.458800000000     0.592100000000     0.914200000000     0          
C1896    C      0.500500000000     0.583900000000     0.884000000000     0          
C1897    C      0.449000000000     0.613200000000     0.895000000000     0          
C1898    C      0.490700000000     0.605000000000     0.864800000000     0          
C1899    C      0.465000000000     0.619600000000     0.870300000000     0          
C1900    C      0.468100000000     0.647500000000     0.844900000000     0          
C1901    C      0.457800000000     0.663700000000     0.823800000000     0          
C1902    C      0.449100000000     0.686500000000     0.800900000000     0          
C1903    C      0.470900000000     0.688600000000     0.780200000000     0          
C1904    C      0.426700000000     0.706600000000     0.801400000000     0          
C1905    C      0.470300000000     0.711000000000     0.760000000000     0          
C1906    C      0.426200000000     0.729000000000     0.781100000000     0          
C1907    C      0.404900000000     0.704500000000     0.822100000000     0          
C1908    C      0.448000000000     0.731200000000     0.760400000000     0          
P1909    P      0.496300000000     0.720400000000     0.727600000000     0          
C1910    C      0.403800000000     0.749200000000     0.781600000000     0          
C1911    C      0.382600000000     0.724700000000     0.822500000000     0          
C1912    C      0.529700000000     0.692400000000     0.726200000000     0          
C1913    C      0.464900000000     0.702800000000     0.705200000000     0          
C1914    C      0.382000000000     0.747000000000     0.802300000000     0          
C1915    C      0.552900000000     0.691500000000     0.745300000000     0          
C1916    C      0.524000000000     0.668900000000     0.708200000000     0          
C1917    C      0.463900000000     0.716300000000     0.678200000000     0          
C1918    C      0.449800000000     0.677200000000     0.709700000000     0          
C1919    C      0.570500000000     0.667000000000     0.746600000000     0          
C1920    C      0.541500000000     0.644400000000     0.709400000000     0          
C1921    C      0.447800000000     0.704100000000     0.655800000000     0          
C1922    C      0.433700000000     0.665000000000     0.687400000000     0          
C1923    C      0.564800000000     0.643500000000     0.728600000000     0          
C1924    C      0.432700000000     0.678400000000     0.660400000000     0          
H1925    H      0.445680000000     0.586820000000     0.934470000000     0          
H1926    H      0.521620000000     0.571870000000     0.879490000000     0          
H1927    H      0.427870000000     0.625200000000     0.899550000000     0          
H1928    H      0.503800000000     0.610300000000     0.844520000000     0          
H1929    H      0.489210000000     0.672000000000     0.779800000000     0          
H1930    H      0.405350000000     0.686200000000     0.838720000000     0          
H1931    H      0.447610000000     0.749510000000     0.743790000000     0          
H1932    H      0.403330000000     0.767550000000     0.765040000000     0          
H1933    H      0.364690000000     0.723010000000     0.839460000000     0          
H1934    H      0.363610000000     0.763520000000     0.802690000000     0          
H1935    H      0.557590000000     0.710840000000     0.759970000000     0          
H1936    H      0.504960000000     0.669730000000     0.692450000000     0          
H1937    H      0.476280000000     0.737360000000     0.674450000000     0          
H1938    H      0.450590000000     0.666100000000     0.731780000000     0          
H1939    H      0.589510000000     0.666260000000     0.762390000000     0          
H1940    H      0.536770000000     0.625100000000     0.694690000000     0          
H1941    H      0.446990000000     0.715160000000     0.633710000000     0          
H1942    H      0.421270000000     0.643970000000     0.691200000000     0          
H1943    H      0.579240000000     0.623460000000     0.729580000000     0          
H1944    H      0.419530000000     0.668350000000     0.642050000000     0          
O1945    O      0.007900000000     0.079100000000     0.039900000000     0          
O1946    O      0.960100000000     0.079800000000     0.992100000000     0          
C1947    C      0.010100000000     0.064400000000     0.064500000000     0          
C1948    C      0.015500000000     0.077500000000     0.091300000000     0          
C1949    C      0.041200000000     0.092100000000     0.085800000000     0          
C1950    C      0.999500000000     0.083900000000     0.116000000000     0          
C1951    C      0.051000000000     0.113200000000     0.105000000000     0          
C1952    C      0.009300000000     0.105000000000     0.135200000000     0          
C1953    C      0.035000000000     0.119600000000     0.129700000000     0          
C1954    C      0.031900000000     0.147500000000     0.155100000000     0          
C1955    C      0.042200000000     0.163700000000     0.176200000000     0          
C1956    C      0.050900000000     0.186500000000     0.199100000000     0          
C1957    C      0.029100000000     0.188600000000     0.219800000000     0          
C1958    C      0.073300000000     0.206600000000     0.198600000000     0          
C1959    C      0.029700000000     0.211000000000     0.240000000000     0          
C1960    C      0.073800000000     0.229000000000     0.218900000000     0          
C1961    C      0.095100000000     0.204500000000     0.177900000000     0          
C1962    C      0.052000000000     0.231200000000     0.239600000000     0          
P1963    P      0.003700000000     0.220400000000     0.272400000000     0          
C1964    C      0.096200000000     0.249200000000     0.218400000000     0          
C1965    C      0.117400000000     0.224700000000     0.177500000000     0          
C1966    C      0.970300000000     0.192400000000     0.273800000000     0          
C1967    C      0.035100000000     0.202800000000     0.294800000000     0          
C1968    C      0.118000000000     0.247000000000     0.197700000000     0          
C1969    C      0.947100000000     0.191500000000     0.254700000000     0          
C1970    C      0.976000000000     0.168900000000     0.291800000000     0          
C1971    C      0.036100000000     0.216300000000     0.321800000000     0          
C1972    C      0.050200000000     0.177200000000     0.290300000000     0          
C1973    C      0.929500000000     0.167000000000     0.253400000000     0          
C1974    C      0.958500000000     0.144400000000     0.290600000000     0          
C1975    C      0.052200000000     0.204100000000     0.344200000000     0          
C1976    C      0.066300000000     0.165000000000     0.312600000000     0          
C1977    C      0.935200000000     0.143500000000     0.271400000000     0          
C1978    C      0.067300000000     0.178400000000     0.339600000000     0          
H1979    H      0.054320000000     0.086820000000     0.065530000000     0          
H1980    H      0.978380000000     0.071870000000     0.120510000000     0          
H1981    H      0.072130000000     0.125200000000     0.100450000000     0          
H1982    H      0.996200000000     0.110300000000     0.155480000000     0          
H1983    H      0.010790000000     0.172000000000     0.220200000000     0          
H1984    H      0.094650000000     0.186200000000     0.161280000000     0          
H1985    H      0.052390000000     0.249510000000     0.256210000000     0          
H1986    H      0.096670000000     0.267550000000     0.234960000000     0          
H1987    H      0.135310000000     0.223010000000     0.160540000000     0          
H1988    H      0.136390000000     0.263520000000     0.197310000000     0          
H1989    H      0.942410000000     0.210840000000     0.240030000000     0          
H1990    H      0.995040000000     0.169730000000     0.307550000000     0          
H1991    H      0.023720000000     0.237360000000     0.325550000000     0          
H1992    H      0.049410000000     0.166100000000     0.268220000000     0          
H1993    H      0.910490000000     0.166260000000     0.237610000000     0          
H1994    H      0.963230000000     0.125100000000     0.305310000000     0          
H1995    H      0.053010000000     0.215160000000     0.366290000000     0          
H1996    H      0.078730000000     0.143970000000     0.308800000000     0          
H1997    H      0.920760000000     0.123460000000     0.270420000000     0          
H1998    H      0.080470000000     0.168350000000     0.357950000000     0          
O1999    O      0.007900000000     0.579100000000     0.539900000000     0          
O2000    O      0.960100000000     0.579800000000     0.492100000000     0          
C2001    C      0.010100000000     0.564400000000     0.564500000000     0          
C2002    C      0.015500000000     0.577500000000     0.591300000000     0          
C2003    C      0.041200000000     0.592100000000     0.585800000000     0          
C2004    C      0.999500000000     0.583900000000     0.616000000000     0          
C2005    C      0.051000000000     0.613200000000     0.605000000000     0          
C2006    C      0.009300000000     0.605000000000     0.635200000000     0          
C2007    C      0.035000000000     0.619600000000     0.629700000000     0          
C2008    C      0.031900000000     0.647500000000     0.655100000000     0          
C2009    C      0.042200000000     0.663700000000     0.676200000000     0          
C2010    C      0.050900000000     0.686500000000     0.699100000000     0          
C2011    C      0.029100000000     0.688600000000     0.719800000000     0          
C2012    C      0.073300000000     0.706600000000     0.698600000000     0          
C2013    C      0.029700000000     0.711000000000     0.740000000000     0          
C2014    C      0.073800000000     0.729000000000     0.718900000000     0          
C2015    C      0.095100000000     0.704500000000     0.677900000000     0          
C2016    C      0.052000000000     0.731200000000     0.739600000000     0          
P2017    P      0.003700000000     0.720400000000     0.772400000000     0          
C2018    C      0.096200000000     0.749200000000     0.718400000000     0          
C2019    C      0.117400000000     0.724700000000     0.677500000000     0          
C2020    C      0.970300000000     0.692400000000     0.773800000000     0          
C2021    C      0.035100000000     0.702800000000     0.794800000000     0          
C2022    C      0.118000000000     0.747000000000     0.697700000000     0          
C2023    C      0.947100000000     0.691500000000     0.754700000000     0          
C2024    C      0.976000000000     0.668900000000     0.791800000000     0          
C2025    C      0.036100000000     0.716300000000     0.821800000000     0          
C2026    C      0.050200000000     0.677200000000     0.790300000000     0          
C2027    C      0.929500000000     0.667000000000     0.753400000000     0          
C2028    C      0.958500000000     0.644400000000     0.790600000000     0          
C2029    C      0.052200000000     0.704100000000     0.844200000000     0          
C2030    C      0.066300000000     0.665000000000     0.812600000000     0          
C2031    C      0.935200000000     0.643500000000     0.771400000000     0          
C2032    C      0.067300000000     0.678400000000     0.839600000000     0          
H2033    H      0.054320000000     0.586820000000     0.565530000000     0          
H2034    H      0.978380000000     0.571870000000     0.620510000000     0          
H2035    H      0.072130000000     0.625200000000     0.600450000000     0          
H2036    H      0.996200000000     0.610300000000     0.655480000000     0          
H2037    H      0.010790000000     0.672000000000     0.720200000000     0          
H2038    H      0.094650000000     0.686200000000     0.661280000000     0          
H2039    H      0.052390000000     0.749510000000     0.756210000000     0          
H2040    H      0.096670000000     0.767550000000     0.734960000000     0          
H2041    H      0.135310000000     0.723010000000     0.660540000000     0          
H2042    H      0.136390000000     0.763520000000     0.697310000000     0          
H2043    H      0.942410000000     0.710840000000     0.740030000000     0          
H2044    H      0.995040000000     0.669730000000     0.807550000000     0          
H2045    H      0.023720000000     0.737360000000     0.825550000000     0          
H2046    H      0.049410000000     0.666100000000     0.768220000000     0          
H2047    H      0.910490000000     0.666260000000     0.737610000000     0          
H2048    H      0.963230000000     0.625100000000     0.805310000000     0          
H2049    H      0.053010000000     0.715160000000     0.866290000000     0          
H2050    H      0.078730000000     0.643970000000     0.808800000000     0          
H2051    H      0.920760000000     0.623460000000     0.770420000000     0          
H2052    H      0.080470000000     0.668350000000     0.857950000000     0          
O2053    O      0.507900000000     0.079100000000     0.539900000000     0          
O2054    O      0.460100000000     0.079800000000     0.492100000000     0          
C2055    C      0.510100000000     0.064400000000     0.564500000000     0          
C2056    C      0.515500000000     0.077500000000     0.591300000000     0          
C2057    C      0.541200000000     0.092100000000     0.585800000000     0          
C2058    C      0.499500000000     0.083900000000     0.616000000000     0          
C2059    C      0.551000000000     0.113200000000     0.605000000000     0          
C2060    C      0.509300000000     0.105000000000     0.635200000000     0          
C2061    C      0.535000000000     0.119600000000     0.629700000000     0          
C2062    C      0.531900000000     0.147500000000     0.655100000000     0          
C2063    C      0.542200000000     0.163700000000     0.676200000000     0          
C2064    C      0.550900000000     0.186500000000     0.699100000000     0          
C2065    C      0.529100000000     0.188600000000     0.719800000000     0          
C2066    C      0.573300000000     0.206600000000     0.698600000000     0          
C2067    C      0.529700000000     0.211000000000     0.740000000000     0          
C2068    C      0.573800000000     0.229000000000     0.718900000000     0          
C2069    C      0.595100000000     0.204500000000     0.677900000000     0          
C2070    C      0.552000000000     0.231200000000     0.739600000000     0          
P2071    P      0.503700000000     0.220400000000     0.772400000000     0          
C2072    C      0.596200000000     0.249200000000     0.718400000000     0          
C2073    C      0.617400000000     0.224700000000     0.677500000000     0          
C2074    C      0.470300000000     0.192400000000     0.773800000000     0          
C2075    C      0.535100000000     0.202800000000     0.794800000000     0          
C2076    C      0.618000000000     0.247000000000     0.697700000000     0          
C2077    C      0.447100000000     0.191500000000     0.754700000000     0          
C2078    C      0.476000000000     0.168900000000     0.791800000000     0          
C2079    C      0.536100000000     0.216300000000     0.821800000000     0          
C2080    C      0.550200000000     0.177200000000     0.790300000000     0          
C2081    C      0.429500000000     0.167000000000     0.753400000000     0          
C2082    C      0.458500000000     0.144400000000     0.790600000000     0          
C2083    C      0.552200000000     0.204100000000     0.844200000000     0          
C2084    C      0.566300000000     0.165000000000     0.812600000000     0          
C2085    C      0.435200000000     0.143500000000     0.771400000000     0          
C2086    C      0.567300000000     0.178400000000     0.839600000000     0          
H2087    H      0.554320000000     0.086820000000     0.565530000000     0          
H2088    H      0.478380000000     0.071870000000     0.620510000000     0          
H2089    H      0.572130000000     0.125200000000     0.600450000000     0          
H2090    H      0.496200000000     0.110300000000     0.655480000000     0          
H2091    H      0.510790000000     0.172000000000     0.720200000000     0          
H2092    H      0.594650000000     0.186200000000     0.661280000000     0          
H2093    H      0.552390000000     0.249510000000     0.756210000000     0          
H2094    H      0.596670000000     0.267550000000     0.734960000000     0          
H2095    H      0.635310000000     0.223010000000     0.660540000000     0          
H2096    H      0.636390000000     0.263520000000     0.697310000000     0          
H2097    H      0.442410000000     0.210840000000     0.740030000000     0          
H2098    H      0.495040000000     0.169730000000     0.807550000000     0          
H2099    H      0.523720000000     0.237360000000     0.825550000000     0          
H2100    H      0.549410000000     0.166100000000     0.768220000000     0          
H2101    H      0.410490000000     0.166260000000     0.737610000000     0          
H2102    H      0.463230000000     0.125100000000     0.805310000000     0          
H2103    H      0.553010000000     0.215160000000     0.866290000000     0          
H2104    H      0.578730000000     0.143970000000     0.808800000000     0          
H2105    H      0.420760000000     0.123460000000     0.770420000000     0          
H2106    H      0.580470000000     0.168350000000     0.857950000000     0          
O2107    O      0.507900000000     0.579100000000     0.039900000000     0          
O2108    O      0.460100000000     0.579800000000     0.992100000000     0          
C2109    C      0.510100000000     0.564400000000     0.064500000000     0          
C2110    C      0.515500000000     0.577500000000     0.091300000000     0          
C2111    C      0.541200000000     0.592100000000     0.085800000000     0          
C2112    C      0.499500000000     0.583900000000     0.116000000000     0          
C2113    C      0.551000000000     0.613200000000     0.105000000000     0          
C2114    C      0.509300000000     0.605000000000     0.135200000000     0          
C2115    C      0.535000000000     0.619600000000     0.129700000000     0          
C2116    C      0.531900000000     0.647500000000     0.155100000000     0          
C2117    C      0.542200000000     0.663700000000     0.176200000000     0          
C2118    C      0.550900000000     0.686500000000     0.199100000000     0          
C2119    C      0.529100000000     0.688600000000     0.219800000000     0          
C2120    C      0.573300000000     0.706600000000     0.198600000000     0          
C2121    C      0.529700000000     0.711000000000     0.240000000000     0          
C2122    C      0.573800000000     0.729000000000     0.218900000000     0          
C2123    C      0.595100000000     0.704500000000     0.177900000000     0          
C2124    C      0.552000000000     0.731200000000     0.239600000000     0          
P2125    P      0.503700000000     0.720400000000     0.272400000000     0          
C2126    C      0.596200000000     0.749200000000     0.218400000000     0          
C2127    C      0.617400000000     0.724700000000     0.177500000000     0          
C2128    C      0.470300000000     0.692400000000     0.273800000000     0          
C2129    C      0.535100000000     0.702800000000     0.294800000000     0          
C2130    C      0.618000000000     0.747000000000     0.197700000000     0          
C2131    C      0.447100000000     0.691500000000     0.254700000000     0          
C2132    C      0.476000000000     0.668900000000     0.291800000000     0          
C2133    C      0.536100000000     0.716300000000     0.321800000000     0          
C2134    C      0.550200000000     0.677200000000     0.290300000000     0          
C2135    C      0.429500000000     0.667000000000     0.253400000000     0          
C2136    C      0.458500000000     0.644400000000     0.290600000000     0          
C2137    C      0.552200000000     0.704100000000     0.344200000000     0          
C2138    C      0.566300000000     0.665000000000     0.312600000000     0          
C2139    C      0.435200000000     0.643500000000     0.271400000000     0          
C2140    C      0.567300000000     0.678400000000     0.339600000000     0          
H2141    H      0.554320000000     0.586820000000     0.065530000000     0          
H2142    H      0.478380000000     0.571870000000     0.120510000000     0          
H2143    H      0.572130000000     0.625200000000     0.100450000000     0          
H2144    H      0.496200000000     0.610300000000     0.155480000000     0          
H2145    H      0.510790000000     0.672000000000     0.220200000000     0          
H2146    H      0.594650000000     0.686200000000     0.161280000000     0          
H2147    H      0.552390000000     0.749510000000     0.256210000000     0          
H2148    H      0.596670000000     0.767550000000     0.234960000000     0          
H2149    H      0.635310000000     0.723010000000     0.160540000000     0          
H2150    H      0.636390000000     0.763520000000     0.197310000000     0          
H2151    H      0.442410000000     0.710840000000     0.240030000000     0          
H2152    H      0.495040000000     0.669730000000     0.307550000000     0          
H2153    H      0.523720000000     0.737360000000     0.325550000000     0          
H2154    H      0.549410000000     0.666100000000     0.268220000000     0          
H2155    H      0.410490000000     0.666260000000     0.237610000000     0          
H2156    H      0.463230000000     0.625100000000     0.305310000000     0          
H2157    H      0.553010000000     0.715160000000     0.366290000000     0          
H2158    H      0.578730000000     0.643970000000     0.308800000000     0          
H2159    H      0.420760000000     0.623460000000     0.270420000000     0          
H2160    H      0.580470000000     0.668350000000     0.357950000000     0          
O2161    O      0.992100000000     0.920900000000     0.039900000000     0          
O2162    O      0.039900000000     0.920200000000     0.992100000000     0          
C2163    C      0.989900000000     0.935600000000     0.064500000000     0          
C2164    C      0.984500000000     0.922500000000     0.091300000000     0          
C2165    C      0.958800000000     0.907900000000     0.085800000000     0          
C2166    C      0.000500000000     0.916100000000     0.116000000000     0          
C2167    C      0.949000000000     0.886800000000     0.105000000000     0          
C2168    C      0.990700000000     0.895000000000     0.135200000000     0          
C2169    C      0.965000000000     0.880400000000     0.129700000000     0          
C2170    C      0.968100000000     0.852500000000     0.155100000000     0          
C2171    C      0.957800000000     0.836300000000     0.176200000000     0          
C2172    C      0.949100000000     0.813500000000     0.199100000000     0          
C2173    C      0.970900000000     0.811400000000     0.219800000000     0          
C2174    C      0.926700000000     0.793400000000     0.198600000000     0          
C2175    C      0.970300000000     0.789000000000     0.240000000000     0          
C2176    C      0.926200000000     0.771000000000     0.218900000000     0          
C2177    C      0.904900000000     0.795500000000     0.177900000000     0          
C2178    C      0.948000000000     0.768800000000     0.239600000000     0          
P2179    P      0.996300000000     0.779600000000     0.272400000000     0          
C2180    C      0.903800000000     0.750800000000     0.218400000000     0          
C2181    C      0.882600000000     0.775300000000     0.177500000000     0          
C2182    C      0.029700000000     0.807600000000     0.273800000000     0          
C2183    C      0.964900000000     0.797200000000     0.294800000000     0          
C2184    C      0.882000000000     0.753000000000     0.197700000000     0          
C2185    C      0.052900000000     0.808500000000     0.254700000000     0          
C2186    C      0.024000000000     0.831100000000     0.291800000000     0          
C2187    C      0.963900000000     0.783700000000     0.321800000000     0          
C2188    C      0.949800000000     0.822800000000     0.290300000000     0          
C2189    C      0.070500000000     0.833000000000     0.253400000000     0          
C2190    C      0.041500000000     0.855600000000     0.290600000000     0          
C2191    C      0.947800000000     0.795900000000     0.344200000000     0          
C2192    C      0.933700000000     0.835000000000     0.312600000000     0          
C2193    C      0.064800000000     0.856500000000     0.271400000000     0          
C2194    C      0.932700000000     0.821600000000     0.339600000000     0          
H2195    H      0.945680000000     0.913180000000     0.065530000000     0          
H2196    H      0.021620000000     0.928130000000     0.120510000000     0          
H2197    H      0.927870000000     0.874800000000     0.100450000000     0          
H2198    H      0.003800000000     0.889700000000     0.155480000000     0          
H2199    H      0.989210000000     0.828000000000     0.220200000000     0          
H2200    H      0.905350000000     0.813800000000     0.161280000000     0          
H2201    H      0.947610000000     0.750490000000     0.256210000000     0          
H2202    H      0.903330000000     0.732450000000     0.234960000000     0          
H2203    H      0.864690000000     0.776990000000     0.160540000000     0          
H2204    H      0.863610000000     0.736480000000     0.197310000000     0          
H2205    H      0.057590000000     0.789160000000     0.240030000000     0          
H2206    H      0.004960000000     0.830270000000     0.307550000000     0          
H2207    H      0.976280000000     0.762640000000     0.325550000000     0          
H2208    H      0.950590000000     0.833900000000     0.268220000000     0          
H2209    H      0.089510000000     0.833740000000     0.237610000000     0          
H2210    H      0.036770000000     0.874900000000     0.305310000000     0          
H2211    H      0.946990000000     0.784840000000     0.366290000000     0          
H2212    H      0.921270000000     0.856030000000     0.308800000000     0          
H2213    H      0.079240000000     0.876540000000     0.270420000000     0          
H2214    H      0.919530000000     0.831650000000     0.357950000000     0          
O2215    O      0.992100000000     0.420900000000     0.539900000000     0          
O2216    O      0.039900000000     0.420200000000     0.492100000000     0          
C2217    C      0.989900000000     0.435600000000     0.564500000000     0          
C2218    C      0.984500000000     0.422500000000     0.591300000000     0          
C2219    C      0.958800000000     0.407900000000     0.585800000000     0          
C2220    C      0.000500000000     0.416100000000     0.616000000000     0          
C2221    C      0.949000000000     0.386800000000     0.605000000000     0          
C2222    C      0.990700000000     0.395000000000     0.635200000000     0          
C2223    C      0.965000000000     0.380400000000     0.629700000000     0          
C2224    C      0.968100000000     0.352500000000     0.655100000000     0          
C2225    C      0.957800000000     0.336300000000     0.676200000000     0          
C2226    C      0.949100000000     0.313500000000     0.699100000000     0          
C2227    C      0.970900000000     0.311400000000     0.719800000000     0          
C2228    C      0.926700000000     0.293400000000     0.698600000000     0          
C2229    C      0.970300000000     0.289000000000     0.740000000000     0          
C2230    C      0.926200000000     0.271000000000     0.718900000000     0          
C2231    C      0.904900000000     0.295500000000     0.677900000000     0          
C2232    C      0.948000000000     0.268800000000     0.739600000000     0          
P2233    P      0.996300000000     0.279600000000     0.772400000000     0          
C2234    C      0.903800000000     0.250800000000     0.718400000000     0          
C2235    C      0.882600000000     0.275300000000     0.677500000000     0          
C2236    C      0.029700000000     0.307600000000     0.773800000000     0          
C2237    C      0.964900000000     0.297200000000     0.794800000000     0          
C2238    C      0.882000000000     0.253000000000     0.697700000000     0          
C2239    C      0.052900000000     0.308500000000     0.754700000000     0          
C2240    C      0.024000000000     0.331100000000     0.791800000000     0          
C2241    C      0.963900000000     0.283700000000     0.821800000000     0          
C2242    C      0.949800000000     0.322800000000     0.790300000000     0          
C2243    C      0.070500000000     0.333000000000     0.753400000000     0          
C2244    C      0.041500000000     0.355600000000     0.790600000000     0          
C2245    C      0.947800000000     0.295900000000     0.844200000000     0          
C2246    C      0.933700000000     0.335000000000     0.812600000000     0          
C2247    C      0.064800000000     0.356500000000     0.771400000000     0          
C2248    C      0.932700000000     0.321600000000     0.839600000000     0          
H2249    H      0.945680000000     0.413180000000     0.565530000000     0          
H2250    H      0.021620000000     0.428130000000     0.620510000000     0          
H2251    H      0.927870000000     0.374800000000     0.600450000000     0          
H2252    H      0.003800000000     0.389700000000     0.655480000000     0          
H2253    H      0.989210000000     0.328000000000     0.720200000000     0          
H2254    H      0.905350000000     0.313800000000     0.661280000000     0          
H2255    H      0.947610000000     0.250490000000     0.756210000000     0          
H2256    H      0.903330000000     0.232450000000     0.734960000000     0          
H2257    H      0.864690000000     0.276990000000     0.660540000000     0          
H2258    H      0.863610000000     0.236480000000     0.697310000000     0          
H2259    H      0.057590000000     0.289160000000     0.740030000000     0          
H2260    H      0.004960000000     0.330270000000     0.807550000000     0          
H2261    H      0.976280000000     0.262640000000     0.825550000000     0          
H2262    H      0.950590000000     0.333900000000     0.768220000000     0          
H2263    H      0.089510000000     0.333740000000     0.737610000000     0          
H2264    H      0.036770000000     0.374900000000     0.805310000000     0          
H2265    H      0.946990000000     0.284840000000     0.866290000000     0          
H2266    H      0.921270000000     0.356030000000     0.808800000000     0          
H2267    H      0.079240000000     0.376540000000     0.770420000000     0          
H2268    H      0.919530000000     0.331650000000     0.857950000000     0          
O2269    O      0.492100000000     0.920900000000     0.539900000000     0          
O2270    O      0.539900000000     0.920200000000     0.492100000000     0          
C2271    C      0.489900000000     0.935600000000     0.564500000000     0          
C2272    C      0.484500000000     0.922500000000     0.591300000000     0          
C2273    C      0.458800000000     0.907900000000     0.585800000000     0          
C2274    C      0.500500000000     0.916100000000     0.616000000000     0          
C2275    C      0.449000000000     0.886800000000     0.605000000000     0          
C2276    C      0.490700000000     0.895000000000     0.635200000000     0          
C2277    C      0.465000000000     0.880400000000     0.629700000000     0          
C2278    C      0.468100000000     0.852500000000     0.655100000000     0          
C2279    C      0.457800000000     0.836300000000     0.676200000000     0          
C2280    C      0.449100000000     0.813500000000     0.699100000000     0          
C2281    C      0.470900000000     0.811400000000     0.719800000000     0          
C2282    C      0.426700000000     0.793400000000     0.698600000000     0          
C2283    C      0.470300000000     0.789000000000     0.740000000000     0          
C2284    C      0.426200000000     0.771000000000     0.718900000000     0          
C2285    C      0.404900000000     0.795500000000     0.677900000000     0          
C2286    C      0.448000000000     0.768800000000     0.739600000000     0          
P2287    P      0.496300000000     0.779600000000     0.772400000000     0          
C2288    C      0.403800000000     0.750800000000     0.718400000000     0          
C2289    C      0.382600000000     0.775300000000     0.677500000000     0          
C2290    C      0.529700000000     0.807600000000     0.773800000000     0          
C2291    C      0.464900000000     0.797200000000     0.794800000000     0          
C2292    C      0.382000000000     0.753000000000     0.697700000000     0          
C2293    C      0.552900000000     0.808500000000     0.754700000000     0          
C2294    C      0.524000000000     0.831100000000     0.791800000000     0          
C2295    C      0.463900000000     0.783700000000     0.821800000000     0          
C2296    C      0.449800000000     0.822800000000     0.790300000000     0          
C2297    C      0.570500000000     0.833000000000     0.753400000000     0          
C2298    C      0.541500000000     0.855600000000     0.790600000000     0          
C2299    C      0.447800000000     0.795900000000     0.844200000000     0          
C2300    C      0.433700000000     0.835000000000     0.812600000000     0          
C2301    C      0.564800000000     0.856500000000     0.771400000000     0          
C2302    C      0.432700000000     0.821600000000     0.839600000000     0          
H2303    H      0.445680000000     0.913180000000     0.565530000000     0          
H2304    H      0.521620000000     0.928130000000     0.620510000000     0          
H2305    H      0.427870000000     0.874800000000     0.600450000000     0          
H2306    H      0.503800000000     0.889700000000     0.655480000000     0          
H2307    H      0.489210000000     0.828000000000     0.720200000000     0          
H2308    H      0.405350000000     0.813800000000     0.661280000000     0          
H2309    H      0.447610000000     0.750490000000     0.756210000000     0          
H2310    H      0.403330000000     0.732450000000     0.734960000000     0          
H2311    H      0.364690000000     0.776990000000     0.660540000000     0          
H2312    H      0.363610000000     0.736480000000     0.697310000000     0          
H2313    H      0.557590000000     0.789160000000     0.740030000000     0          
H2314    H      0.504960000000     0.830270000000     0.807550000000     0          
H2315    H      0.476280000000     0.762640000000     0.825550000000     0          
H2316    H      0.450590000000     0.833900000000     0.768220000000     0          
H2317    H      0.589510000000     0.833740000000     0.737610000000     0          
H2318    H      0.536770000000     0.874900000000     0.805310000000     0          
H2319    H      0.446990000000     0.784840000000     0.866290000000     0          
H2320    H      0.421270000000     0.856030000000     0.808800000000     0          
H2321    H      0.579240000000     0.876540000000     0.770420000000     0          
H2322    H      0.419530000000     0.831650000000     0.857950000000     0          
O2323    O      0.492100000000     0.420900000000     0.039900000000     0          
O2324    O      0.539900000000     0.420200000000     0.992100000000     0          
C2325    C      0.489900000000     0.435600000000     0.064500000000     0          
C2326    C      0.484500000000     0.422500000000     0.091300000000     0          
C2327    C      0.458800000000     0.407900000000     0.085800000000     0          
C2328    C      0.500500000000     0.416100000000     0.116000000000     0          
C2329    C      0.449000000000     0.386800000000     0.105000000000     0          
C2330    C      0.490700000000     0.395000000000     0.135200000000     0          
C2331    C      0.465000000000     0.380400000000     0.129700000000     0          
C2332    C      0.468100000000     0.352500000000     0.155100000000     0          
C2333    C      0.457800000000     0.336300000000     0.176200000000     0          
C2334    C      0.449100000000     0.313500000000     0.199100000000     0          
C2335    C      0.470900000000     0.311400000000     0.219800000000     0          
C2336    C      0.426700000000     0.293400000000     0.198600000000     0          
C2337    C      0.470300000000     0.289000000000     0.240000000000     0          
C2338    C      0.426200000000     0.271000000000     0.218900000000     0          
C2339    C      0.404900000000     0.295500000000     0.177900000000     0          
C2340    C      0.448000000000     0.268800000000     0.239600000000     0          
P2341    P      0.496300000000     0.279600000000     0.272400000000     0          
C2342    C      0.403800000000     0.250800000000     0.218400000000     0          
C2343    C      0.382600000000     0.275300000000     0.177500000000     0          
C2344    C      0.529700000000     0.307600000000     0.273800000000     0          
C2345    C      0.464900000000     0.297200000000     0.294800000000     0          
C2346    C      0.382000000000     0.253000000000     0.197700000000     0          
C2347    C      0.552900000000     0.308500000000     0.254700000000     0          
C2348    C      0.524000000000     0.331100000000     0.291800000000     0          
C2349    C      0.463900000000     0.283700000000     0.321800000000     0          
C2350    C      0.449800000000     0.322800000000     0.290300000000     0          
C2351    C      0.570500000000     0.333000000000     0.253400000000     0          
C2352    C      0.541500000000     0.355600000000     0.290600000000     0          
C2353    C      0.447800000000     0.295900000000     0.344200000000     0          
C2354    C      0.433700000000     0.335000000000     0.312600000000     0          
C2355    C      0.564800000000     0.356500000000     0.271400000000     0          
C2356    C      0.432700000000     0.321600000000     0.339600000000     0          
H2357    H      0.445680000000     0.413180000000     0.065530000000     0          
H2358    H      0.521620000000     0.428130000000     0.120510000000     0          
H2359    H      0.427870000000     0.374800000000     0.100450000000     0          
H2360    H      0.503800000000     0.389700000000     0.155480000000     0          
H2361    H      0.489210000000     0.328000000000     0.220200000000     0          
H2362    H      0.405350000000     0.313800000000     0.161280000000     0          
H2363    H      0.447610000000     0.250490000000     0.256210000000     0          
H2364    H      0.403330000000     0.232450000000     0.234960000000     0          
H2365    H      0.364690000000     0.276990000000     0.160540000000     0          
H2366    H      0.363610000000     0.236480000000     0.197310000000     0          
H2367    H      0.557590000000     0.289160000000     0.240030000000     0          
H2368    H      0.504960000000     0.330270000000     0.307550000000     0          
H2369    H      0.476280000000     0.262640000000     0.325550000000     0          
H2370    H      0.450590000000     0.333900000000     0.268220000000     0          
H2371    H      0.589510000000     0.333740000000     0.237610000000     0          
H2372    H      0.536770000000     0.374900000000     0.305310000000     0          
H2373    H      0.446990000000     0.284840000000     0.366290000000     0          
H2374    H      0.421270000000     0.356030000000     0.308800000000     0          
H2375    H      0.579240000000     0.376540000000     0.270420000000     0          
H2376    H      0.419530000000     0.331650000000     0.357950000000     0          
O2377    O      0.007900000000     0.920900000000     0.960100000000     0          
O2378    O      0.960100000000     0.920200000000     0.007900000000     0          
C2379    C      0.010100000000     0.935600000000     0.935500000000     0          
C2380    C      0.015500000000     0.922500000000     0.908700000000     0          
C2381    C      0.041200000000     0.907900000000     0.914200000000     0          
C2382    C      0.999500000000     0.916100000000     0.884000000000     0          
C2383    C      0.051000000000     0.886800000000     0.895000000000     0          
C2384    C      0.009300000000     0.895000000000     0.864800000000     0          
C2385    C      0.035000000000     0.880400000000     0.870300000000     0          
C2386    C      0.031900000000     0.852500000000     0.844900000000     0          
C2387    C      0.042200000000     0.836300000000     0.823800000000     0          
C2388    C      0.050900000000     0.813500000000     0.800900000000     0          
C2389    C      0.029100000000     0.811400000000     0.780200000000     0          
C2390    C      0.073300000000     0.793400000000     0.801400000000     0          
C2391    C      0.029700000000     0.789000000000     0.760000000000     0          
C2392    C      0.073800000000     0.771000000000     0.781100000000     0          
C2393    C      0.095100000000     0.795500000000     0.822100000000     0          
C2394    C      0.052000000000     0.768800000000     0.760400000000     0          
P2395    P      0.003700000000     0.779600000000     0.727600000000     0          
C2396    C      0.096200000000     0.750800000000     0.781600000000     0          
C2397    C      0.117400000000     0.775300000000     0.822500000000     0          
C2398    C      0.970300000000     0.807600000000     0.726200000000     0          
C2399    C      0.035100000000     0.797200000000     0.705200000000     0          
C2400    C      0.118000000000     0.753000000000     0.802300000000     0          
C2401    C      0.947100000000     0.808500000000     0.745300000000     0          
C2402    C      0.976000000000     0.831100000000     0.708200000000     0          
C2403    C      0.036100000000     0.783700000000     0.678200000000     0          
C2404    C      0.050200000000     0.822800000000     0.709700000000     0          
C2405    C      0.929500000000     0.833000000000     0.746600000000     0          
C2406    C      0.958500000000     0.855600000000     0.709400000000     0          
C2407    C      0.052200000000     0.795900000000     0.655800000000     0          
C2408    C      0.066300000000     0.835000000000     0.687400000000     0          
C2409    C      0.935200000000     0.856500000000     0.728600000000     0          
C2410    C      0.067300000000     0.821600000000     0.660400000000     0          
H2411    H      0.054320000000     0.913180000000     0.934470000000     0          
H2412    H      0.978380000000     0.928130000000     0.879490000000     0          
H2413    H      0.072130000000     0.874800000000     0.899550000000     0          
H2414    H      0.996200000000     0.889700000000     0.844520000000     0          
H2415    H      0.010790000000     0.828000000000     0.779800000000     0          
H2416    H      0.094650000000     0.813800000000     0.838720000000     0          
H2417    H      0.052390000000     0.750490000000     0.743790000000     0          
H2418    H      0.096670000000     0.732450000000     0.765040000000     0          
H2419    H      0.135310000000     0.776990000000     0.839460000000     0          
H2420    H      0.136390000000     0.736480000000     0.802690000000     0          
H2421    H      0.942410000000     0.789160000000     0.759970000000     0          
H2422    H      0.995040000000     0.830270000000     0.692450000000     0          
H2423    H      0.023720000000     0.762640000000     0.674450000000     0          
H2424    H      0.049410000000     0.833900000000     0.731780000000     0          
H2425    H      0.910490000000     0.833740000000     0.762390000000     0          
H2426    H      0.963230000000     0.874900000000     0.694690000000     0          
H2427    H      0.053010000000     0.784840000000     0.633710000000     0          
H2428    H      0.078730000000     0.856030000000     0.691200000000     0          
H2429    H      0.920760000000     0.876540000000     0.729580000000     0          
H2430    H      0.080470000000     0.831650000000     0.642050000000     0          
O2431    O      0.007900000000     0.420900000000     0.460100000000     0          
O2432    O      0.960100000000     0.420200000000     0.507900000000     0          
C2433    C      0.010100000000     0.435600000000     0.435500000000     0          
C2434    C      0.015500000000     0.422500000000     0.408700000000     0          
C2435    C      0.041200000000     0.407900000000     0.414200000000     0          
C2436    C      0.999500000000     0.416100000000     0.384000000000     0          
C2437    C      0.051000000000     0.386800000000     0.395000000000     0          
C2438    C      0.009300000000     0.395000000000     0.364800000000     0          
C2439    C      0.035000000000     0.380400000000     0.370300000000     0          
C2440    C      0.031900000000     0.352500000000     0.344900000000     0          
C2441    C      0.042200000000     0.336300000000     0.323800000000     0          
C2442    C      0.050900000000     0.313500000000     0.300900000000     0          
C2443    C      0.029100000000     0.311400000000     0.280200000000     0          
C2444    C      0.073300000000     0.293400000000     0.301400000000     0          
C2445    C      0.029700000000     0.289000000000     0.260000000000     0          
C2446    C      0.073800000000     0.271000000000     0.281100000000     0          
C2447    C      0.095100000000     0.295500000000     0.322100000000     0          
C2448    C      0.052000000000     0.268800000000     0.260400000000     0          
P2449    P      0.003700000000     0.279600000000     0.227600000000     0          
C2450    C      0.096200000000     0.250800000000     0.281600000000     0          
C2451    C      0.117400000000     0.275300000000     0.322500000000     0          
C2452    C      0.970300000000     0.307600000000     0.226200000000     0          
C2453    C      0.035100000000     0.297200000000     0.205200000000     0          
C2454    C      0.118000000000     0.253000000000     0.302300000000     0          
C2455    C      0.947100000000     0.308500000000     0.245300000000     0          
C2456    C      0.976000000000     0.331100000000     0.208200000000     0          
C2457    C      0.036100000000     0.283700000000     0.178200000000     0          
C2458    C      0.050200000000     0.322800000000     0.209700000000     0          
C2459    C      0.929500000000     0.333000000000     0.246600000000     0          
C2460    C      0.958500000000     0.355600000000     0.209400000000     0          
C2461    C      0.052200000000     0.295900000000     0.155800000000     0          
C2462    C      0.066300000000     0.335000000000     0.187400000000     0          
C2463    C      0.935200000000     0.356500000000     0.228600000000     0          
C2464    C      0.067300000000     0.321600000000     0.160400000000     0          
H2465    H      0.054320000000     0.413180000000     0.434470000000     0          
H2466    H      0.978380000000     0.428130000000     0.379490000000     0          
H2467    H      0.072130000000     0.374800000000     0.399550000000     0          
H2468    H      0.996200000000     0.389700000000     0.344520000000     0          
H2469    H      0.010790000000     0.328000000000     0.279800000000     0          
H2470    H      0.094650000000     0.313800000000     0.338720000000     0          
H2471    H      0.052390000000     0.250490000000     0.243790000000     0          
H2472    H      0.096670000000     0.232450000000     0.265040000000     0          
H2473    H      0.135310000000     0.276990000000     0.339460000000     0          
H2474    H      0.136390000000     0.236480000000     0.302690000000     0          
H2475    H      0.942410000000     0.289160000000     0.259970000000     0          
H2476    H      0.995040000000     0.330270000000     0.192450000000     0          
H2477    H      0.023720000000     0.262640000000     0.174450000000     0          
H2478    H      0.049410000000     0.333900000000     0.231780000000     0          
H2479    H      0.910490000000     0.333740000000     0.262390000000     0          
H2480    H      0.963230000000     0.374900000000     0.194690000000     0          
H2481    H      0.053010000000     0.284840000000     0.133710000000     0          
H2482    H      0.078730000000     0.356030000000     0.191200000000     0          
H2483    H      0.920760000000     0.376540000000     0.229580000000     0          
H2484    H      0.080470000000     0.331650000000     0.142050000000     0          
O2485    O      0.507900000000     0.920900000000     0.460100000000     0          
O2486    O      0.460100000000     0.920200000000     0.507900000000     0          
C2487    C      0.510100000000     0.935600000000     0.435500000000     0          
C2488    C      0.515500000000     0.922500000000     0.408700000000     0          
C2489    C      0.541200000000     0.907900000000     0.414200000000     0          
C2490    C      0.499500000000     0.916100000000     0.384000000000     0          
C2491    C      0.551000000000     0.886800000000     0.395000000000     0          
C2492    C      0.509300000000     0.895000000000     0.364800000000     0          
C2493    C      0.535000000000     0.880400000000     0.370300000000     0          
C2494    C      0.531900000000     0.852500000000     0.344900000000     0          
C2495    C      0.542200000000     0.836300000000     0.323800000000     0          
C2496    C      0.550900000000     0.813500000000     0.300900000000     0          
C2497    C      0.529100000000     0.811400000000     0.280200000000     0          
C2498    C      0.573300000000     0.793400000000     0.301400000000     0          
C2499    C      0.529700000000     0.789000000000     0.260000000000     0          
C2500    C      0.573800000000     0.771000000000     0.281100000000     0          
C2501    C      0.595100000000     0.795500000000     0.322100000000     0          
C2502    C      0.552000000000     0.768800000000     0.260400000000     0          
P2503    P      0.503700000000     0.779600000000     0.227600000000     0          
C2504    C      0.596200000000     0.750800000000     0.281600000000     0          
C2505    C      0.617400000000     0.775300000000     0.322500000000     0          
C2506    C      0.470300000000     0.807600000000     0.226200000000     0          
C2507    C      0.535100000000     0.797200000000     0.205200000000     0          
C2508    C      0.618000000000     0.753000000000     0.302300000000     0          
C2509    C      0.447100000000     0.808500000000     0.245300000000     0          
C2510    C      0.476000000000     0.831100000000     0.208200000000     0          
C2511    C      0.536100000000     0.783700000000     0.178200000000     0          
C2512    C      0.550200000000     0.822800000000     0.209700000000     0          
C2513    C      0.429500000000     0.833000000000     0.246600000000     0          
C2514    C      0.458500000000     0.855600000000     0.209400000000     0          
C2515    C      0.552200000000     0.795900000000     0.155800000000     0          
C2516    C      0.566300000000     0.835000000000     0.187400000000     0          
C2517    C      0.435200000000     0.856500000000     0.228600000000     0          
C2518    C      0.567300000000     0.821600000000     0.160400000000     0          
H2519    H      0.554320000000     0.913180000000     0.434470000000     0          
H2520    H      0.478380000000     0.928130000000     0.379490000000     0          
H2521    H      0.572130000000     0.874800000000     0.399550000000     0          
H2522    H      0.496200000000     0.889700000000     0.344520000000     0          
H2523    H      0.510790000000     0.828000000000     0.279800000000     0          
H2524    H      0.594650000000     0.813800000000     0.338720000000     0          
H2525    H      0.552390000000     0.750490000000     0.243790000000     0          
H2526    H      0.596670000000     0.732450000000     0.265040000000     0          
H2527    H      0.635310000000     0.776990000000     0.339460000000     0          
H2528    H      0.636390000000     0.736480000000     0.302690000000     0          
H2529    H      0.442410000000     0.789160000000     0.259970000000     0          
H2530    H      0.495040000000     0.830270000000     0.192450000000     0          
H2531    H      0.523720000000     0.762640000000     0.174450000000     0          
H2532    H      0.549410000000     0.833900000000     0.231780000000     0          
H2533    H      0.410490000000     0.833740000000     0.262390000000     0          
H2534    H      0.463230000000     0.874900000000     0.194690000000     0          
H2535    H      0.553010000000     0.784840000000     0.133710000000     0          
H2536    H      0.578730000000     0.856030000000     0.191200000000     0          
H2537    H      0.420760000000     0.876540000000     0.229580000000     0          
H2538    H      0.580470000000     0.831650000000     0.142050000000     0          
O2539    O      0.507900000000     0.420900000000     0.960100000000     0          
O2540    O      0.460100000000     0.420200000000     0.007900000000     0          
C2541    C      0.510100000000     0.435600000000     0.935500000000     0          
C2542    C      0.515500000000     0.422500000000     0.908700000000     0          
C2543    C      0.541200000000     0.407900000000     0.914200000000     0          
C2544    C      0.499500000000     0.416100000000     0.884000000000     0          
C2545    C      0.551000000000     0.386800000000     0.895000000000     0          
C2546    C      0.509300000000     0.395000000000     0.864800000000     0          
C2547    C      0.535000000000     0.380400000000     0.870300000000     0          
C2548    C      0.531900000000     0.352500000000     0.844900000000     0          
C2549    C      0.542200000000     0.336300000000     0.823800000000     0          
C2550    C      0.550900000000     0.313500000000     0.800900000000     0          
C2551    C      0.529100000000     0.311400000000     0.780200000000     0          
C2552    C      0.573300000000     0.293400000000     0.801400000000     0          
C2553    C      0.529700000000     0.289000000000     0.760000000000     0          
C2554    C      0.573800000000     0.271000000000     0.781100000000     0          
C2555    C      0.595100000000     0.295500000000     0.822100000000     0          
C2556    C      0.552000000000     0.268800000000     0.760400000000     0          
P2557    P      0.503700000000     0.279600000000     0.727600000000     0          
C2558    C      0.596200000000     0.250800000000     0.781600000000     0          
C2559    C      0.617400000000     0.275300000000     0.822500000000     0          
C2560    C      0.470300000000     0.307600000000     0.726200000000     0          
C2561    C      0.535100000000     0.297200000000     0.705200000000     0          
C2562    C      0.618000000000     0.253000000000     0.802300000000     0          
C2563    C      0.447100000000     0.308500000000     0.745300000000     0          
C2564    C      0.476000000000     0.331100000000     0.708200000000     0          
C2565    C      0.536100000000     0.283700000000     0.678200000000     0          
C2566    C      0.550200000000     0.322800000000     0.709700000000     0          
C2567    C      0.429500000000     0.333000000000     0.746600000000     0          
C2568    C      0.458500000000     0.355600000000     0.709400000000     0          
C2569    C      0.552200000000     0.295900000000     0.655800000000     0          
C2570    C      0.566300000000     0.335000000000     0.687400000000     0          
C2571    C      0.435200000000     0.356500000000     0.728600000000     0          
C2572    C      0.567300000000     0.321600000000     0.660400000000     0          
H2573    H      0.554320000000     0.413180000000     0.934470000000     0          
H2574    H      0.478380000000     0.428130000000     0.879490000000     0          
H2575    H      0.572130000000     0.374800000000     0.899550000000     0          
H2576    H      0.496200000000     0.389700000000     0.844520000000     0          
H2577    H      0.510790000000     0.328000000000     0.779800000000     0          
H2578    H      0.594650000000     0.313800000000     0.838720000000     0          
H2579    H      0.552390000000     0.250490000000     0.743790000000     0          
H2580    H      0.596670000000     0.232450000000     0.765040000000     0          
H2581    H      0.635310000000     0.276990000000     0.839460000000     0          
H2582    H      0.636390000000     0.236480000000     0.802690000000     0          
H2583    H      0.442410000000     0.289160000000     0.759970000000     0          
H2584    H      0.495040000000     0.330270000000     0.692450000000     0          
H2585    H      0.523720000000     0.262640000000     0.674450000000     0          
H2586    H      0.549410000000     0.333900000000     0.731780000000     0          
H2587    H      0.410490000000     0.333740000000     0.762390000000     0          
H2588    H      0.463230000000     0.374900000000     0.694690000000     0          
H2589    H      0.553010000000     0.284840000000     0.633710000000     0          
H2590    H      0.578730000000     0.356030000000     0.691200000000     0          
H2591    H      0.420760000000     0.376540000000     0.729580000000     0          
H2592    H      0.580470000000     0.331650000000     0.642050000000     0          
Zr2593   Zr     0.000000000000     0.000000000000     0.053700000000     0          
Zr2594   Zr     0.000000000000     0.500000000000     0.553700000000     0          
Zr2595   Zr     0.500000000000     0.000000000000     0.553700000000     0          
Zr2596   Zr     0.500000000000     0.500000000000     0.053700000000     0          
Zr2597   Zr     0.000000000000     0.000000000000     0.946300000000     0          
Zr2598   Zr     0.000000000000     0.500000000000     0.446300000000     0          
Zr2599   Zr     0.500000000000     0.000000000000     0.446300000000     0          
Zr2600   Zr     0.500000000000     0.500000000000     0.946300000000     0          
Zr2601   Zr     0.053700000000     0.000000000000     0.000000000000     0          
Zr2602   Zr     0.053700000000     0.500000000000     0.500000000000     0          
Zr2603   Zr     0.553700000000     0.000000000000     0.500000000000     0          
Zr2604   Zr     0.553700000000     0.500000000000     0.000000000000     0          
Zr2605   Zr     0.946300000000     0.000000000000     0.000000000000     0          
Zr2606   Zr     0.946300000000     0.500000000000     0.500000000000     0          
Zr2607   Zr     0.446300000000     0.000000000000     0.500000000000     0          
Zr2608   Zr     0.446300000000     0.500000000000     0.000000000000     0          
Zr2609   Zr     0.000000000000     0.053700000000     0.000000000000     0          
Zr2610   Zr     0.000000000000     0.553700000000     0.500000000000     0          
Zr2611   Zr     0.500000000000     0.053700000000     0.500000000000     0          
Zr2612   Zr     0.500000000000     0.553700000000     0.000000000000     0          
Zr2613   Zr     0.000000000000     0.946300000000     0.000000000000     0          
Zr2614   Zr     0.000000000000     0.446300000000     0.500000000000     0          
Zr2615   Zr     0.500000000000     0.946300000000     0.500000000000     0          
Zr2616   Zr     0.500000000000     0.446300000000     0.000000000000     0          
O2617    O      0.970900000000     0.029100000000     0.029100000000     0          
O2618    O      0.970900000000     0.529100000000     0.529100000000     0          
O2619    O      0.470900000000     0.029100000000     0.529100000000     0          
O2620    O      0.470900000000     0.529100000000     0.029100000000     0          
O2621    O      0.029100000000     0.970900000000     0.029100000000     0          
O2622    O      0.029100000000     0.470900000000     0.529100000000     0          
O2623    O      0.529100000000     0.970900000000     0.529100000000     0          
O2624    O      0.529100000000     0.470900000000     0.029100000000     0          
O2625    O      0.029100000000     0.029100000000     0.970900000000     0          
O2626    O      0.029100000000     0.529100000000     0.470900000000     0          
O2627    O      0.529100000000     0.029100000000     0.470900000000     0          
O2628    O      0.529100000000     0.529100000000     0.970900000000     0          
O2629    O      0.970900000000     0.970900000000     0.970900000000     0          
O2630    O      0.970900000000     0.470900000000     0.470900000000     0          
O2631    O      0.470900000000     0.970900000000     0.470900000000     0          
O2632    O      0.470900000000     0.470900000000     0.970900000000     0          
O2633    O      0.974400000000     0.974400000000     0.025600000000     0          
O2634    O      0.974400000000     0.474400000000     0.525600000000     0          
O2635    O      0.474400000000     0.974400000000     0.525600000000     0          
O2636    O      0.474400000000     0.474400000000     0.025600000000     0          
O2637    O      0.025600000000     0.025600000000     0.025600000000     0          
O2638    O      0.025600000000     0.525600000000     0.525600000000     0          
O2639    O      0.525600000000     0.025600000000     0.525600000000     0          
O2640    O      0.525600000000     0.525600000000     0.025600000000     0          
O2641    O      0.025600000000     0.974400000000     0.974400000000     0          
O2642    O      0.025600000000     0.474400000000     0.474400000000     0          
O2643    O      0.525600000000     0.974400000000     0.474400000000     0          
O2644    O      0.525600000000     0.474400000000     0.974400000000     0          
O2645    O      0.974400000000     0.025600000000     0.974400000000     0          
O2646    O      0.974400000000     0.525600000000     0.474400000000     0          
O2647    O      0.474400000000     0.025600000000     0.474400000000     0          
O2648    O      0.474400000000     0.525600000000     0.974400000000     0          


