data_BOHWOM

_audit_creation_method RASPA-1.0
_audit_creation_date 2020-11-2
_audit_author_name 'Rocio Bueno-Perez'

_cell_length_a    23.9651
_cell_length_b    29.2842
_cell_length_c    17.3545
_cell_angle_alpha 90
_cell_angle_beta  96.301
_cell_angle_gamma 90
_cell_volume      12105.8

_symmetry_cell_setting          monoclinic
_symmetry_space_group_name_Hall 'P 1'
_symmetry_space_group_name_H-M  'P 1'
_symmetry_Int_Tables_number     1

_symmetry_equiv_pos_as_xyz 'x,y,z'

loop_
_atom_site_label
_atom_site_type_symbol
_atom_site_fract_x
_atom_site_fract_y
_atom_site_fract_z
_atom_site_charge
Zr1      Zr     0.166050000000     0.207330000000     0.533570000000     0          
Zr2      Zr     0.298040000000     0.231110000000     0.629360000000     0          
Zr3      Zr     0.214070000000     0.321900000000     0.552580000000     0          
O4       O      0.292600000000     0.292200000000     0.565900000000     0          
O5       O      0.139000000000     0.335570000000     0.603400000000     0          
O6       O      0.239300000000     0.339620000000     0.677500000000     0          
O7       O      0.385100000000     0.249700000000     0.676800000000     0          
O8       O      0.290900000000     0.277990000000     0.725600000000     0          
O9       O      0.249400000000     0.323800000000     0.437900000000     0          
O10      O      0.207000000000     0.257600000000     0.619900000000     0          
O11      O      0.094600000000     0.236900000000     0.592500000000     0          
O12      O      0.154600000000     0.275500000000     0.470600000000     0          
O13      O      0.332600000000     0.324840000000     0.350300000000     0          
O14      O      0.245500000000     0.308210000000     0.286800000000     0          
O15      O      0.846100000000     0.667310000000     0.647200000000     0          
O16      O      0.260100000000     0.613400000000     0.050700000000     0          
O17      O      0.838700000000     0.632390000000     0.530300000000     0          
O18      O      0.340100000000     0.632500000000     0.990100000000     0          
O19      O      0.588400000000     0.304200000000     0.962700000000     0          
C20      C      0.300900000000     0.411800000000     0.877800000000     0          
C21      C      0.287000000000     0.342500000000     0.803100000000     0          
C22      C      0.294700000000     0.326100000000     0.293100000000     0          
C23      C      0.360200000000     0.410200000000     0.011300000000     0          
C24      C      0.310300000000     0.349800000000     0.221600000000     0          
C25      C      0.269600000000     0.318400000000     0.727900000000     0          
C26      C      0.347600000000     0.461600000000     0.016500000000     0          
C27      C      0.341200000000     0.389100000000     0.085600000000     0          
C28      C      0.304700000000     0.604400000000     0.020900000000     0          
C29      C      0.320100000000     0.555000000000     0.020500000000     0          
C30      C      0.279100000000     0.389100000000     0.809800000000     0          
C31      C      0.329100000000     0.387400000000     0.938900000000     0          
C32      C      0.313500000000     0.317800000000     0.865500000000     0          
C33      C      0.334500000000     0.340200000000     0.932000000000     0          
C34      C      0.422000000000     0.399800000000     0.001200000000     0          
C35      C      0.292000000000     0.364600000000     0.084500000000     0          
C36      C      0.371700000000     0.397600000000     0.156600000000     0          
C37      C      0.294100000000     0.475200000000     0.027100000000     0          
C38      C      0.279800000000     0.522300000000     0.029400000000     0          
C39      C      0.357100000000     0.377900000000     0.223500000000     0          
C40      C      0.275500000000     0.346100000000     0.152000000000     0          
C41      C      0.441900000000     0.415000000000     0.933800000000     0          
C42      C      0.373200000000     0.540800000000     0.008900000000     0          
C43      C      0.386300000000     0.494100000000     0.006100000000     0          
C44      C      0.518200000000     0.364100000000     0.956600000000     0          
C45      C      0.449700000000     0.365200000000     0.041300000000     0          
C46      C      0.498900000000     0.349000000000     0.019500000000     0          
C47      C      0.568500000000     0.338300000000     0.925700000000     0          
C48      C      0.490300000000     0.398400000000     0.907900000000     0          
C49      C      0.956800000000     0.526700000000     0.707200000000     0          
C50      C      0.025600000000     0.460400000000     0.695000000000     0          
C51      C      0.008900000000     0.396700000000     0.606400000000     0          
C52      C      0.103200000000     0.415600000000     0.660800000000     0          
C53      C      0.067000000000     0.387200000000     0.614900000000     0          
C54      C      0.916300000000     0.567200000000     0.592300000000     0          
C55      C      0.989100000000     0.433100000000     0.646000000000     0          
C56      C      0.951000000000     0.532600000000     0.628400000000     0          
C57      C      0.926900000000     0.555300000000     0.752900000000     0          
C58      C      0.082900000000     0.452300000000     0.700900000000     0          
C59      C      0.888800000000     0.596100000000     0.638700000000     0          
C60      C      0.854200000000     0.634600000000     0.602100000000     0          
C61      C      0.893700000000     0.590400000000     0.719100000000     0          
C62      C      0.088700000000     0.346100000000     0.579000000000     0          
O63      O      0.056500000000     0.322200000000     0.533800000000     0          
O64      O      0.588400000000     0.351400000000     0.861600000000     0          
C65      C      0.330300000000     0.233600000000     0.086700000000     0          
C66      C      0.341000000000     0.144900000000     0.095100000000     0          
C67      C      0.358500000000     0.194500000000     0.220600000000     0          
N68      N      0.340600000000     0.190800000000     0.134700000000     0          
O69      O      0.362000000000     0.240700000000     0.259300000000     0          
O70      O      0.172100000000     0.271700000000     0.486800000000     0          
O71      O      0.308800000000     0.301400000000     0.585800000000     0          
O72      O      0.250400000000     0.304900000000     0.454800000000     0          
O73      O      0.218700000000     0.255300000000     0.592500000000     0          
H74      H      0.260340000000     0.448580000000     0.034220000000     0          
H75      H      0.235230000000     0.532900000000     0.038560000000     0          
H76      H      0.407320000000     0.567040000000     0.001400000000     0          
H77      H      0.430540000000     0.483780000000     0.994800000000     0          
H78      H      0.021110000000     0.374410000000     0.932840000000     0          
H79      H      0.849620000000     0.409150000000     0.833750000000     0          
H80      H      0.886990000000     0.475500000000     0.761760000000     0          
H81      H      0.057660000000     0.558610000000     0.360870000000     0          
H82      H      0.025020000000     0.491210000000     0.408170000000     0          
H83      H      0.070260000000     0.450170000000     0.181750000000     0          
H84      H      0.129250000000     0.385760000000     0.243090000000     0          
H85      H      0.264220000000     0.359300000000     0.027550000000     0          
H86      H      0.383780000000     0.384810000000     0.280820000000     0          
H87      H      0.233380000000     0.327840000000     0.150500000000     0          
H88      H      0.204500000000     0.049690000000     0.116990000000     0          
H89      H      0.244980000000     0.090960000000     0.239570000000     0          
H90      H      0.182320000000     0.220870000000     0.138780000000     0          
H91      H      0.143370000000     0.180440000000     0.017970000000     0          
H92      H      0.409650000000     0.421290000000     0.160340000000     0          
H93      H      0.431770000000     0.349580000000     0.093490000000     0          
H94      H      0.523300000000     0.322020000000     0.056670000000     0          
H95      H      0.417970000000     0.442430000000     0.897090000000     0          
H96      H      0.504830000000     0.412140000000     0.851960000000     0          
H97      H      0.431700000000     0.249700000000     0.683860000000     0          
H98      H      0.141200000000     0.236900000000     0.599560000000     0          
H99      H      0.911500000000     0.570790000000     0.526500000000     0          
H100     H      0.286790000000     0.247580000000     0.093950000000     0          
H101     H      0.332970000000     0.225250000000     0.023050000000     0          
H102     H      0.363360000000     0.260270000000     0.106860000000     0          
H103     H      0.299710000000     0.127420000000     0.073610000000     0          
H104     H      0.382600000000     0.127730000000     0.086700000000     0          
C105     C      0.000000000000     0.494100000000     0.750000000000     0          
Zr1      Zr     0.833950000000     0.207330000000     0.966430000000     0          
Zr2      Zr     0.701960000000     0.231110000000     0.870640000000     0          
Zr3      Zr     0.785930000000     0.321900000000     0.947420000000     0          
O4       O      0.707400000000     0.292200000000     0.934100000000     0          
O5       O      0.861000000000     0.335570000000     0.896600000000     0          
O6       O      0.760700000000     0.339620000000     0.822500000000     0          
O7       O      0.614900000000     0.249700000000     0.823200000000     0          
O8       O      0.709100000000     0.277990000000     0.774400000000     0          
O9       O      0.750600000000     0.323800000000     0.062100000000     0          
O10      O      0.793000000000     0.257600000000     0.880100000000     0          
O11      O      0.905400000000     0.236900000000     0.907500000000     0          
O12      O      0.845400000000     0.275500000000     0.029400000000     0          
O13      O      0.667400000000     0.324840000000     0.149700000000     0          
O14      O      0.754500000000     0.308210000000     0.213200000000     0          
O15      O      0.153900000000     0.667310000000     0.852800000000     0          
O16      O      0.739900000000     0.613400000000     0.449300000000     0          
O17      O      0.161300000000     0.632390000000     0.969700000000     0          
O18      O      0.659900000000     0.632500000000     0.509900000000     0          
O19      O      0.411600000000     0.304200000000     0.537300000000     0          
C20      C      0.699100000000     0.411800000000     0.622200000000     0          
C21      C      0.713000000000     0.342500000000     0.696900000000     0          
C22      C      0.705300000000     0.326100000000     0.206900000000     0          
C23      C      0.639800000000     0.410200000000     0.488700000000     0          
C24      C      0.689700000000     0.349800000000     0.278400000000     0          
C25      C      0.730400000000     0.318400000000     0.772100000000     0          
C26      C      0.652400000000     0.461600000000     0.483500000000     0          
C27      C      0.658800000000     0.389100000000     0.414400000000     0          
C28      C      0.695300000000     0.604400000000     0.479100000000     0          
C29      C      0.679900000000     0.555000000000     0.479500000000     0          
C30      C      0.720900000000     0.389100000000     0.690200000000     0          
C31      C      0.670900000000     0.387400000000     0.561100000000     0          
C32      C      0.686500000000     0.317800000000     0.634500000000     0          
C33      C      0.665500000000     0.340200000000     0.568000000000     0          
C34      C      0.578000000000     0.399800000000     0.498800000000     0          
C35      C      0.708000000000     0.364600000000     0.415500000000     0          
C36      C      0.628300000000     0.397600000000     0.343400000000     0          
C37      C      0.705900000000     0.475200000000     0.472900000000     0          
C38      C      0.720200000000     0.522300000000     0.470600000000     0          
C39      C      0.642900000000     0.377900000000     0.276500000000     0          
C40      C      0.724500000000     0.346100000000     0.348000000000     0          
C41      C      0.558100000000     0.415000000000     0.566200000000     0          
C42      C      0.626800000000     0.540800000000     0.491100000000     0          
C43      C      0.613700000000     0.494100000000     0.493900000000     0          
C44      C      0.481800000000     0.364100000000     0.543400000000     0          
C45      C      0.550300000000     0.365200000000     0.458700000000     0          
C46      C      0.501100000000     0.349000000000     0.480500000000     0          
C47      C      0.431500000000     0.338300000000     0.574300000000     0          
C48      C      0.509700000000     0.398400000000     0.592100000000     0          
C49      C      0.043200000000     0.526700000000     0.792800000000     0          
C50      C      0.974400000000     0.460400000000     0.805000000000     0          
C51      C      0.991100000000     0.396700000000     0.893600000000     0          
C52      C      0.896800000000     0.415600000000     0.839200000000     0          
C53      C      0.933000000000     0.387200000000     0.885100000000     0          
C54      C      0.083700000000     0.567200000000     0.907700000000     0          
C55      C      0.010900000000     0.433100000000     0.854000000000     0          
C56      C      0.049000000000     0.532600000000     0.871600000000     0          
C57      C      0.073100000000     0.555300000000     0.747100000000     0          
C58      C      0.917100000000     0.452300000000     0.799100000000     0          
C59      C      0.111200000000     0.596100000000     0.861300000000     0          
C60      C      0.145800000000     0.634600000000     0.897900000000     0          
C61      C      0.106300000000     0.590400000000     0.780900000000     0          
C62      C      0.911300000000     0.346100000000     0.921000000000     0          
O63      O      0.943500000000     0.322200000000     0.966200000000     0          
O64      O      0.411600000000     0.351400000000     0.638400000000     0          
C65      C      0.669700000000     0.233600000000     0.413300000000     0          
C66      C      0.659000000000     0.144900000000     0.404900000000     0          
C67      C      0.641500000000     0.194500000000     0.279400000000     0          
N68      N      0.659400000000     0.190800000000     0.365300000000     0          
O69      O      0.638000000000     0.240700000000     0.240700000000     0          
O70      O      0.827900000000     0.271700000000     0.013200000000     0          
O71      O      0.691200000000     0.301400000000     0.914200000000     0          
O72      O      0.749600000000     0.304900000000     0.045200000000     0          
O73      O      0.781300000000     0.255300000000     0.907500000000     0          
H74      H      0.739660000000     0.448580000000     0.465780000000     0          
H75      H      0.764770000000     0.532900000000     0.461440000000     0          
H76      H      0.592680000000     0.567040000000     0.498600000000     0          
H77      H      0.569460000000     0.483780000000     0.505200000000     0          
H78      H      0.978890000000     0.374410000000     0.567160000000     0          
H79      H      0.150380000000     0.409150000000     0.666250000000     0          
H80      H      0.113010000000     0.475500000000     0.738240000000     0          
H81      H      0.942340000000     0.558610000000     0.139130000000     0          
H82      H      0.974980000000     0.491210000000     0.091830000000     0          
H83      H      0.929740000000     0.450170000000     0.318250000000     0          
H84      H      0.870750000000     0.385760000000     0.256910000000     0          
H85      H      0.735780000000     0.359300000000     0.472450000000     0          
H86      H      0.616220000000     0.384810000000     0.219180000000     0          
H87      H      0.766620000000     0.327840000000     0.349500000000     0          
H88      H      0.795500000000     0.049690000000     0.383010000000     0          
H89      H      0.755020000000     0.090960000000     0.260430000000     0          
H90      H      0.817680000000     0.220870000000     0.361220000000     0          
H91      H      0.856630000000     0.180440000000     0.482030000000     0          
H92      H      0.590350000000     0.421290000000     0.339660000000     0          
H93      H      0.568230000000     0.349580000000     0.406510000000     0          
H94      H      0.476700000000     0.322020000000     0.443330000000     0          
H95      H      0.582030000000     0.442430000000     0.602910000000     0          
H96      H      0.495170000000     0.412140000000     0.648040000000     0          
H97      H      0.568300000000     0.249700000000     0.816140000000     0          
H98      H      0.858800000000     0.236900000000     0.900440000000     0          
H99      H      0.088500000000     0.570790000000     0.973500000000     0          
H100     H      0.713210000000     0.247580000000     0.406050000000     0          
H101     H      0.667030000000     0.225250000000     0.476950000000     0          
H102     H      0.636640000000     0.260270000000     0.393140000000     0          
H103     H      0.700290000000     0.127420000000     0.426390000000     0          
H104     H      0.617400000000     0.127730000000     0.413300000000     0          
Zr1      Zr     0.833950000000     0.792670000000     0.466430000000     0          
Zr2      Zr     0.701960000000     0.768890000000     0.370640000000     0          
Zr3      Zr     0.785930000000     0.678100000000     0.447420000000     0          
O4       O      0.707400000000     0.707800000000     0.434100000000     0          
O5       O      0.861000000000     0.664430000000     0.396600000000     0          
O6       O      0.760700000000     0.660380000000     0.322500000000     0          
O7       O      0.614900000000     0.750300000000     0.323200000000     0          
O8       O      0.709100000000     0.722010000000     0.274400000000     0          
O9       O      0.750600000000     0.676200000000     0.562100000000     0          
O10      O      0.793000000000     0.742400000000     0.380100000000     0          
O11      O      0.905400000000     0.763100000000     0.407500000000     0          
O12      O      0.845400000000     0.724500000000     0.529400000000     0          
O13      O      0.667400000000     0.675160000000     0.649700000000     0          
O14      O      0.754500000000     0.691790000000     0.713200000000     0          
O15      O      0.153900000000     0.332690000000     0.352800000000     0          
O16      O      0.739900000000     0.386600000000     0.949300000000     0          
O17      O      0.161300000000     0.367610000000     0.469700000000     0          
O18      O      0.659900000000     0.367500000000     0.009900000000     0          
O19      O      0.411600000000     0.695800000000     0.037300000000     0          
C20      C      0.699100000000     0.588200000000     0.122200000000     0          
C21      C      0.713000000000     0.657500000000     0.196900000000     0          
C22      C      0.705300000000     0.673900000000     0.706900000000     0          
C23      C      0.639800000000     0.589800000000     0.988700000000     0          
C24      C      0.689700000000     0.650200000000     0.778400000000     0          
C25      C      0.730400000000     0.681600000000     0.272100000000     0          
C26      C      0.652400000000     0.538400000000     0.983500000000     0          
C27      C      0.658800000000     0.610900000000     0.914400000000     0          
C28      C      0.695300000000     0.395600000000     0.979100000000     0          
C29      C      0.679900000000     0.445000000000     0.979500000000     0          
C30      C      0.720900000000     0.610900000000     0.190200000000     0          
C31      C      0.670900000000     0.612600000000     0.061100000000     0          
C32      C      0.686500000000     0.682200000000     0.134500000000     0          
C33      C      0.665500000000     0.659800000000     0.068000000000     0          
C34      C      0.578000000000     0.600200000000     0.998800000000     0          
C35      C      0.708000000000     0.635400000000     0.915500000000     0          
C36      C      0.628300000000     0.602400000000     0.843400000000     0          
C37      C      0.705900000000     0.524800000000     0.972900000000     0          
C38      C      0.720200000000     0.477700000000     0.970600000000     0          
C39      C      0.642900000000     0.622100000000     0.776500000000     0          
C40      C      0.724500000000     0.653900000000     0.848000000000     0          
C41      C      0.558100000000     0.585000000000     0.066200000000     0          
C42      C      0.626800000000     0.459200000000     0.991100000000     0          
C43      C      0.613700000000     0.505900000000     0.993900000000     0          
C44      C      0.481800000000     0.635900000000     0.043400000000     0          
C45      C      0.550300000000     0.634800000000     0.958700000000     0          
C46      C      0.501100000000     0.651000000000     0.980500000000     0          
C47      C      0.431500000000     0.661700000000     0.074300000000     0          
C48      C      0.509700000000     0.601600000000     0.092100000000     0          
C49      C      0.043200000000     0.473300000000     0.292800000000     0          
C50      C      0.974400000000     0.539600000000     0.305000000000     0          
C51      C      0.991100000000     0.603300000000     0.393600000000     0          
C52      C      0.896800000000     0.584400000000     0.339200000000     0          
C53      C      0.933000000000     0.612800000000     0.385100000000     0          
C54      C      0.083700000000     0.432800000000     0.407700000000     0          
C55      C      0.010900000000     0.566900000000     0.354000000000     0          
C56      C      0.049000000000     0.467400000000     0.371600000000     0          
C57      C      0.073100000000     0.444700000000     0.247100000000     0          
C58      C      0.917100000000     0.547700000000     0.299100000000     0          
C59      C      0.111200000000     0.403900000000     0.361300000000     0          
C60      C      0.145800000000     0.365400000000     0.397900000000     0          
C61      C      0.106300000000     0.409600000000     0.280900000000     0          
C62      C      0.911300000000     0.653900000000     0.421000000000     0          
O63      O      0.943500000000     0.677800000000     0.466200000000     0          
O64      O      0.411600000000     0.648600000000     0.138400000000     0          
C65      C      0.669700000000     0.766400000000     0.913300000000     0          
C66      C      0.659000000000     0.855100000000     0.904900000000     0          
C67      C      0.641500000000     0.805500000000     0.779400000000     0          
N68      N      0.659400000000     0.809200000000     0.865300000000     0          
O69      O      0.638000000000     0.759300000000     0.740700000000     0          
O70      O      0.827900000000     0.728300000000     0.513200000000     0          
O71      O      0.691200000000     0.698600000000     0.414200000000     0          
O72      O      0.749600000000     0.695100000000     0.545200000000     0          
O73      O      0.781300000000     0.744700000000     0.407500000000     0          
H74      H      0.739660000000     0.551420000000     0.965780000000     0          
H75      H      0.764770000000     0.467100000000     0.961440000000     0          
H76      H      0.592680000000     0.432960000000     0.998600000000     0          
H77      H      0.569460000000     0.516220000000     0.005200000000     0          
H78      H      0.978890000000     0.625590000000     0.067160000000     0          
H79      H      0.150380000000     0.590850000000     0.166250000000     0          
H80      H      0.113010000000     0.524500000000     0.238240000000     0          
H81      H      0.942340000000     0.441390000000     0.639130000000     0          
H82      H      0.974980000000     0.508790000000     0.591830000000     0          
H83      H      0.929740000000     0.549830000000     0.818250000000     0          
H84      H      0.870750000000     0.614240000000     0.756910000000     0          
H85      H      0.735780000000     0.640700000000     0.972450000000     0          
H86      H      0.616220000000     0.615190000000     0.719180000000     0          
H87      H      0.766620000000     0.672160000000     0.849500000000     0          
H88      H      0.795500000000     0.950310000000     0.883010000000     0          
H89      H      0.755020000000     0.909040000000     0.760430000000     0          
H90      H      0.817680000000     0.779130000000     0.861220000000     0          
H91      H      0.856630000000     0.819560000000     0.982030000000     0          
H92      H      0.590350000000     0.578710000000     0.839660000000     0          
H93      H      0.568230000000     0.650420000000     0.906510000000     0          
H94      H      0.476700000000     0.677980000000     0.943330000000     0          
H95      H      0.582030000000     0.557570000000     0.102910000000     0          
H96      H      0.495170000000     0.587860000000     0.148040000000     0          
H97      H      0.568300000000     0.750300000000     0.316140000000     0          
H98      H      0.858800000000     0.763100000000     0.400440000000     0          
H99      H      0.088500000000     0.429210000000     0.473500000000     0          
H100     H      0.713210000000     0.752420000000     0.906050000000     0          
H101     H      0.667030000000     0.774750000000     0.976950000000     0          
H102     H      0.636640000000     0.739730000000     0.893140000000     0          
H103     H      0.700290000000     0.872580000000     0.926390000000     0          
H104     H      0.617400000000     0.872270000000     0.913300000000     0          
C105     C      0.000000000000     0.505900000000     0.250000000000     0          
Zr1      Zr     0.166050000000     0.792670000000     0.033570000000     0          
Zr2      Zr     0.298040000000     0.768890000000     0.129360000000     0          
Zr3      Zr     0.214070000000     0.678100000000     0.052580000000     0          
O4       O      0.292600000000     0.707800000000     0.065900000000     0          
O5       O      0.139000000000     0.664430000000     0.103400000000     0          
O6       O      0.239300000000     0.660380000000     0.177500000000     0          
O7       O      0.385100000000     0.750300000000     0.176800000000     0          
O8       O      0.290900000000     0.722010000000     0.225600000000     0          
O9       O      0.249400000000     0.676200000000     0.937900000000     0          
O10      O      0.207000000000     0.742400000000     0.119900000000     0          
O11      O      0.094600000000     0.763100000000     0.092500000000     0          
O12      O      0.154600000000     0.724500000000     0.970600000000     0          
O13      O      0.332600000000     0.675160000000     0.850300000000     0          
O14      O      0.245500000000     0.691790000000     0.786800000000     0          
O15      O      0.846100000000     0.332690000000     0.147200000000     0          
O16      O      0.260100000000     0.386600000000     0.550700000000     0          
O17      O      0.838700000000     0.367610000000     0.030300000000     0          
O18      O      0.340100000000     0.367500000000     0.490100000000     0          
O19      O      0.588400000000     0.695800000000     0.462700000000     0          
C20      C      0.300900000000     0.588200000000     0.377800000000     0          
C21      C      0.287000000000     0.657500000000     0.303100000000     0          
C22      C      0.294700000000     0.673900000000     0.793100000000     0          
C23      C      0.360200000000     0.589800000000     0.511300000000     0          
C24      C      0.310300000000     0.650200000000     0.721600000000     0          
C25      C      0.269600000000     0.681600000000     0.227900000000     0          
C26      C      0.347600000000     0.538400000000     0.516500000000     0          
C27      C      0.341200000000     0.610900000000     0.585600000000     0          
C28      C      0.304700000000     0.395600000000     0.520900000000     0          
C29      C      0.320100000000     0.445000000000     0.520500000000     0          
C30      C      0.279100000000     0.610900000000     0.309800000000     0          
C31      C      0.329100000000     0.612600000000     0.438900000000     0          
C32      C      0.313500000000     0.682200000000     0.365500000000     0          
C33      C      0.334500000000     0.659800000000     0.432000000000     0          
C34      C      0.422000000000     0.600200000000     0.501200000000     0          
C35      C      0.292000000000     0.635400000000     0.584500000000     0          
C36      C      0.371700000000     0.602400000000     0.656600000000     0          
C37      C      0.294100000000     0.524800000000     0.527100000000     0          
C38      C      0.279800000000     0.477700000000     0.529400000000     0          
C39      C      0.357100000000     0.622100000000     0.723500000000     0          
C40      C      0.275500000000     0.653900000000     0.652000000000     0          
C41      C      0.441900000000     0.585000000000     0.433800000000     0          
C42      C      0.373200000000     0.459200000000     0.508900000000     0          
C43      C      0.386300000000     0.505900000000     0.506100000000     0          
C44      C      0.518200000000     0.635900000000     0.456600000000     0          
C45      C      0.449700000000     0.634800000000     0.541300000000     0          
C46      C      0.498900000000     0.651000000000     0.519500000000     0          
C47      C      0.568500000000     0.661700000000     0.425700000000     0          
C48      C      0.490300000000     0.601600000000     0.407900000000     0          
C49      C      0.956800000000     0.473300000000     0.207200000000     0          
C50      C      0.025600000000     0.539600000000     0.195000000000     0          
C51      C      0.008900000000     0.603300000000     0.106400000000     0          
C52      C      0.103200000000     0.584400000000     0.160800000000     0          
C53      C      0.067000000000     0.612800000000     0.114900000000     0          
C54      C      0.916300000000     0.432800000000     0.092300000000     0          
C55      C      0.989100000000     0.566900000000     0.146000000000     0          
C56      C      0.951000000000     0.467400000000     0.128400000000     0          
C57      C      0.926900000000     0.444700000000     0.252900000000     0          
C58      C      0.082900000000     0.547700000000     0.200900000000     0          
C59      C      0.888800000000     0.403900000000     0.138700000000     0          
C60      C      0.854200000000     0.365400000000     0.102100000000     0          
C61      C      0.893700000000     0.409600000000     0.219100000000     0          
C62      C      0.088700000000     0.653900000000     0.079000000000     0          
O63      O      0.056500000000     0.677800000000     0.033800000000     0          
O64      O      0.588400000000     0.648600000000     0.361600000000     0          
C65      C      0.330300000000     0.766400000000     0.586700000000     0          
C66      C      0.341000000000     0.855100000000     0.595100000000     0          
C67      C      0.358500000000     0.805500000000     0.720600000000     0          
N68      N      0.340600000000     0.809200000000     0.634700000000     0          
O69      O      0.362000000000     0.759300000000     0.759300000000     0          
O70      O      0.172100000000     0.728300000000     0.986800000000     0          
O71      O      0.308800000000     0.698600000000     0.085800000000     0          
O72      O      0.250400000000     0.695100000000     0.954800000000     0          
O73      O      0.218700000000     0.744700000000     0.092500000000     0          
H74      H      0.260340000000     0.551420000000     0.534220000000     0          
H75      H      0.235230000000     0.467100000000     0.538560000000     0          
H76      H      0.407320000000     0.432960000000     0.501400000000     0          
H77      H      0.430540000000     0.516220000000     0.494800000000     0          
H78      H      0.021110000000     0.625590000000     0.432840000000     0          
H79      H      0.849620000000     0.590850000000     0.333750000000     0          
H80      H      0.886990000000     0.524500000000     0.261760000000     0          
H81      H      0.057660000000     0.441390000000     0.860870000000     0          
H82      H      0.025020000000     0.508790000000     0.908170000000     0          
H83      H      0.070260000000     0.549830000000     0.681750000000     0          
H84      H      0.129250000000     0.614240000000     0.743090000000     0          
H85      H      0.264220000000     0.640700000000     0.527550000000     0          
H86      H      0.383780000000     0.615190000000     0.780820000000     0          
H87      H      0.233380000000     0.672160000000     0.650500000000     0          
H88      H      0.204500000000     0.950310000000     0.616990000000     0          
H89      H      0.244980000000     0.909040000000     0.739570000000     0          
H90      H      0.182320000000     0.779130000000     0.638780000000     0          
H91      H      0.143370000000     0.819560000000     0.517970000000     0          
H92      H      0.409650000000     0.578710000000     0.660340000000     0          
H93      H      0.431770000000     0.650420000000     0.593490000000     0          
H94      H      0.523300000000     0.677980000000     0.556670000000     0          
H95      H      0.417970000000     0.557570000000     0.397090000000     0          
H96      H      0.504830000000     0.587860000000     0.351960000000     0          
H97      H      0.431700000000     0.750300000000     0.183860000000     0          
H98      H      0.141200000000     0.763100000000     0.099560000000     0          
H99      H      0.911500000000     0.429210000000     0.026500000000     0          
H100     H      0.286790000000     0.752420000000     0.593950000000     0          
H101     H      0.332970000000     0.774750000000     0.523050000000     0          
H102     H      0.363360000000     0.739730000000     0.606860000000     0          
H103     H      0.299710000000     0.872580000000     0.573610000000     0          
H104     H      0.382600000000     0.872270000000     0.586700000000     0          
Zr1      Zr     0.666050000000     0.707330000000     0.533570000000     0          
Zr2      Zr     0.798040000000     0.731110000000     0.629360000000     0          
Zr3      Zr     0.714070000000     0.821900000000     0.552580000000     0          
O4       O      0.792600000000     0.792200000000     0.565900000000     0          
O5       O      0.639000000000     0.835570000000     0.603400000000     0          
O6       O      0.739300000000     0.839620000000     0.677500000000     0          
O7       O      0.885100000000     0.749700000000     0.676800000000     0          
O8       O      0.790900000000     0.777990000000     0.725600000000     0          
O9       O      0.749400000000     0.823800000000     0.437900000000     0          
O10      O      0.707000000000     0.757600000000     0.619900000000     0          
O11      O      0.594600000000     0.736900000000     0.592500000000     0          
O12      O      0.654600000000     0.775500000000     0.470600000000     0          
O13      O      0.832600000000     0.824840000000     0.350300000000     0          
O14      O      0.745500000000     0.808210000000     0.286800000000     0          
O15      O      0.346100000000     0.167310000000     0.647200000000     0          
O16      O      0.760100000000     0.113400000000     0.050700000000     0          
O17      O      0.338700000000     0.132390000000     0.530300000000     0          
O18      O      0.840100000000     0.132500000000     0.990100000000     0          
O19      O      0.088400000000     0.804200000000     0.962700000000     0          
C20      C      0.800900000000     0.911800000000     0.877800000000     0          
C21      C      0.787000000000     0.842500000000     0.803100000000     0          
C22      C      0.794700000000     0.826100000000     0.293100000000     0          
C23      C      0.860200000000     0.910200000000     0.011300000000     0          
C24      C      0.810300000000     0.849800000000     0.221600000000     0          
C25      C      0.769600000000     0.818400000000     0.727900000000     0          
C26      C      0.847600000000     0.961600000000     0.016500000000     0          
C27      C      0.841200000000     0.889100000000     0.085600000000     0          
C28      C      0.804700000000     0.104400000000     0.020900000000     0          
C29      C      0.820100000000     0.055000000000     0.020500000000     0          
C30      C      0.779100000000     0.889100000000     0.809800000000     0          
C31      C      0.829100000000     0.887400000000     0.938900000000     0          
C32      C      0.813500000000     0.817800000000     0.865500000000     0          
C33      C      0.834500000000     0.840200000000     0.932000000000     0          
C34      C      0.922000000000     0.899800000000     0.001200000000     0          
C35      C      0.792000000000     0.864600000000     0.084500000000     0          
C36      C      0.871700000000     0.897600000000     0.156600000000     0          
C37      C      0.794100000000     0.975200000000     0.027100000000     0          
C38      C      0.779800000000     0.022300000000     0.029400000000     0          
C39      C      0.857100000000     0.877900000000     0.223500000000     0          
C40      C      0.775500000000     0.846100000000     0.152000000000     0          
C41      C      0.941900000000     0.915000000000     0.933800000000     0          
C42      C      0.873200000000     0.040800000000     0.008900000000     0          
C43      C      0.886300000000     0.994100000000     0.006100000000     0          
C44      C      0.018200000000     0.864100000000     0.956600000000     0          
C45      C      0.949700000000     0.865200000000     0.041300000000     0          
C46      C      0.998900000000     0.849000000000     0.019500000000     0          
C47      C      0.068500000000     0.838300000000     0.925700000000     0          
C48      C      0.990300000000     0.898400000000     0.907900000000     0          
C49      C      0.456800000000     0.026700000000     0.707200000000     0          
C50      C      0.525600000000     0.960400000000     0.695000000000     0          
C51      C      0.508900000000     0.896700000000     0.606400000000     0          
C52      C      0.603200000000     0.915600000000     0.660800000000     0          
C53      C      0.567000000000     0.887200000000     0.614900000000     0          
C54      C      0.416300000000     0.067200000000     0.592300000000     0          
C55      C      0.489100000000     0.933100000000     0.646000000000     0          
C56      C      0.451000000000     0.032600000000     0.628400000000     0          
C57      C      0.426900000000     0.055300000000     0.752900000000     0          
C58      C      0.582900000000     0.952300000000     0.700900000000     0          
C59      C      0.388800000000     0.096100000000     0.638700000000     0          
C60      C      0.354200000000     0.134600000000     0.602100000000     0          
C61      C      0.393700000000     0.090400000000     0.719100000000     0          
C62      C      0.588700000000     0.846100000000     0.579000000000     0          
O63      O      0.556500000000     0.822200000000     0.533800000000     0          
O64      O      0.088400000000     0.851400000000     0.861600000000     0          
C65      C      0.830300000000     0.733600000000     0.086700000000     0          
C66      C      0.841000000000     0.644900000000     0.095100000000     0          
C67      C      0.858500000000     0.694500000000     0.220600000000     0          
N68      N      0.840600000000     0.690800000000     0.134700000000     0          
O69      O      0.862000000000     0.740700000000     0.259300000000     0          
O70      O      0.672100000000     0.771700000000     0.486800000000     0          
O71      O      0.808800000000     0.801400000000     0.585800000000     0          
O72      O      0.750400000000     0.804900000000     0.454800000000     0          
O73      O      0.718700000000     0.755300000000     0.592500000000     0          
H74      H      0.760340000000     0.948580000000     0.034220000000     0          
H75      H      0.735230000000     0.032900000000     0.038560000000     0          
H76      H      0.907320000000     0.067040000000     0.001400000000     0          
H77      H      0.930540000000     0.983780000000     0.994800000000     0          
H78      H      0.521110000000     0.874410000000     0.932840000000     0          
H79      H      0.349620000000     0.909150000000     0.833750000000     0          
H80      H      0.386990000000     0.975500000000     0.761760000000     0          
H81      H      0.557660000000     0.058610000000     0.360870000000     0          
H82      H      0.525020000000     0.991210000000     0.408170000000     0          
H83      H      0.570260000000     0.950170000000     0.181750000000     0          
H84      H      0.629250000000     0.885760000000     0.243090000000     0          
H85      H      0.764220000000     0.859300000000     0.027550000000     0          
H86      H      0.883780000000     0.884810000000     0.280820000000     0          
H87      H      0.733380000000     0.827840000000     0.150500000000     0          
H88      H      0.704500000000     0.549690000000     0.116990000000     0          
H89      H      0.744980000000     0.590960000000     0.239570000000     0          
H90      H      0.682320000000     0.720870000000     0.138780000000     0          
H91      H      0.643370000000     0.680440000000     0.017970000000     0          
H92      H      0.909650000000     0.921290000000     0.160340000000     0          
H93      H      0.931770000000     0.849580000000     0.093490000000     0          
H94      H      0.023300000000     0.822020000000     0.056670000000     0          
H95      H      0.917970000000     0.942430000000     0.897090000000     0          
H96      H      0.004830000000     0.912140000000     0.851960000000     0          
H97      H      0.931700000000     0.749700000000     0.683860000000     0          
H98      H      0.641200000000     0.736900000000     0.599560000000     0          
H99      H      0.411500000000     0.070790000000     0.526500000000     0          
H100     H      0.786790000000     0.747580000000     0.093950000000     0          
H101     H      0.832970000000     0.725250000000     0.023050000000     0          
H102     H      0.863360000000     0.760270000000     0.106860000000     0          
H103     H      0.799710000000     0.627420000000     0.073610000000     0          
H104     H      0.882600000000     0.627730000000     0.086700000000     0          
C105     C      0.500000000000     0.994100000000     0.750000000000     0          
Zr1      Zr     0.333950000000     0.707330000000     0.966430000000     0          
Zr2      Zr     0.201960000000     0.731110000000     0.870640000000     0          
Zr3      Zr     0.285930000000     0.821900000000     0.947420000000     0          
O4       O      0.207400000000     0.792200000000     0.934100000000     0          
O5       O      0.361000000000     0.835570000000     0.896600000000     0          
O6       O      0.260700000000     0.839620000000     0.822500000000     0          
O7       O      0.114900000000     0.749700000000     0.823200000000     0          
O8       O      0.209100000000     0.777990000000     0.774400000000     0          
O9       O      0.250600000000     0.823800000000     0.062100000000     0          
O10      O      0.293000000000     0.757600000000     0.880100000000     0          
O11      O      0.405400000000     0.736900000000     0.907500000000     0          
O12      O      0.345400000000     0.775500000000     0.029400000000     0          
O13      O      0.167400000000     0.824840000000     0.149700000000     0          
O14      O      0.254500000000     0.808210000000     0.213200000000     0          
O15      O      0.653900000000     0.167310000000     0.852800000000     0          
O16      O      0.239900000000     0.113400000000     0.449300000000     0          
O17      O      0.661300000000     0.132390000000     0.969700000000     0          
O18      O      0.159900000000     0.132500000000     0.509900000000     0          
O19      O      0.911600000000     0.804200000000     0.537300000000     0          
C20      C      0.199100000000     0.911800000000     0.622200000000     0          
C21      C      0.213000000000     0.842500000000     0.696900000000     0          
C22      C      0.205300000000     0.826100000000     0.206900000000     0          
C23      C      0.139800000000     0.910200000000     0.488700000000     0          
C24      C      0.189700000000     0.849800000000     0.278400000000     0          
C25      C      0.230400000000     0.818400000000     0.772100000000     0          
C26      C      0.152400000000     0.961600000000     0.483500000000     0          
C27      C      0.158800000000     0.889100000000     0.414400000000     0          
C28      C      0.195300000000     0.104400000000     0.479100000000     0          
C29      C      0.179900000000     0.055000000000     0.479500000000     0          
C30      C      0.220900000000     0.889100000000     0.690200000000     0          
C31      C      0.170900000000     0.887400000000     0.561100000000     0          
C32      C      0.186500000000     0.817800000000     0.634500000000     0          
C33      C      0.165500000000     0.840200000000     0.568000000000     0          
C34      C      0.078000000000     0.899800000000     0.498800000000     0          
C35      C      0.208000000000     0.864600000000     0.415500000000     0          
C36      C      0.128300000000     0.897600000000     0.343400000000     0          
C37      C      0.205900000000     0.975200000000     0.472900000000     0          
C38      C      0.220200000000     0.022300000000     0.470600000000     0          
C39      C      0.142900000000     0.877900000000     0.276500000000     0          
C40      C      0.224500000000     0.846100000000     0.348000000000     0          
C41      C      0.058100000000     0.915000000000     0.566200000000     0          
C42      C      0.126800000000     0.040800000000     0.491100000000     0          
C43      C      0.113700000000     0.994100000000     0.493900000000     0          
C44      C      0.981800000000     0.864100000000     0.543400000000     0          
C45      C      0.050300000000     0.865200000000     0.458700000000     0          
C46      C      0.001100000000     0.849000000000     0.480500000000     0          
C47      C      0.931500000000     0.838300000000     0.574300000000     0          
C48      C      0.009700000000     0.898400000000     0.592100000000     0          
C49      C      0.543200000000     0.026700000000     0.792800000000     0          
C50      C      0.474400000000     0.960400000000     0.805000000000     0          
C51      C      0.491100000000     0.896700000000     0.893600000000     0          
C52      C      0.396800000000     0.915600000000     0.839200000000     0          
C53      C      0.433000000000     0.887200000000     0.885100000000     0          
C54      C      0.583700000000     0.067200000000     0.907700000000     0          
C55      C      0.510900000000     0.933100000000     0.854000000000     0          
C56      C      0.549000000000     0.032600000000     0.871600000000     0          
C57      C      0.573100000000     0.055300000000     0.747100000000     0          
C58      C      0.417100000000     0.952300000000     0.799100000000     0          
C59      C      0.611200000000     0.096100000000     0.861300000000     0          
C60      C      0.645800000000     0.134600000000     0.897900000000     0          
C61      C      0.606300000000     0.090400000000     0.780900000000     0          
C62      C      0.411300000000     0.846100000000     0.921000000000     0          
O63      O      0.443500000000     0.822200000000     0.966200000000     0          
O64      O      0.911600000000     0.851400000000     0.638400000000     0          
C65      C      0.169700000000     0.733600000000     0.413300000000     0          
C66      C      0.159000000000     0.644900000000     0.404900000000     0          
C67      C      0.141500000000     0.694500000000     0.279400000000     0          
N68      N      0.159400000000     0.690800000000     0.365300000000     0          
O69      O      0.138000000000     0.740700000000     0.240700000000     0          
O70      O      0.327900000000     0.771700000000     0.013200000000     0          
O71      O      0.191200000000     0.801400000000     0.914200000000     0          
O72      O      0.249600000000     0.804900000000     0.045200000000     0          
O73      O      0.281300000000     0.755300000000     0.907500000000     0          
H74      H      0.239660000000     0.948580000000     0.465780000000     0          
H75      H      0.264770000000     0.032900000000     0.461440000000     0          
H76      H      0.092680000000     0.067040000000     0.498600000000     0          
H77      H      0.069460000000     0.983780000000     0.505200000000     0          
H78      H      0.478890000000     0.874410000000     0.567160000000     0          
H79      H      0.650380000000     0.909150000000     0.666250000000     0          
H80      H      0.613010000000     0.975500000000     0.738240000000     0          
H81      H      0.442340000000     0.058610000000     0.139130000000     0          
H82      H      0.474980000000     0.991210000000     0.091830000000     0          
H83      H      0.429740000000     0.950170000000     0.318250000000     0          
H84      H      0.370750000000     0.885760000000     0.256910000000     0          
H85      H      0.235780000000     0.859300000000     0.472450000000     0          
H86      H      0.116220000000     0.884810000000     0.219180000000     0          
H87      H      0.266620000000     0.827840000000     0.349500000000     0          
H88      H      0.295500000000     0.549690000000     0.383010000000     0          
H89      H      0.255020000000     0.590960000000     0.260430000000     0          
H90      H      0.317680000000     0.720870000000     0.361220000000     0          
H91      H      0.356630000000     0.680440000000     0.482030000000     0          
H92      H      0.090350000000     0.921290000000     0.339660000000     0          
H93      H      0.068230000000     0.849580000000     0.406510000000     0          
H94      H      0.976700000000     0.822020000000     0.443330000000     0          
H95      H      0.082030000000     0.942430000000     0.602910000000     0          
H96      H      0.995170000000     0.912140000000     0.648040000000     0          
H97      H      0.068300000000     0.749700000000     0.816140000000     0          
H98      H      0.358800000000     0.736900000000     0.900440000000     0          
H99      H      0.588500000000     0.070790000000     0.973500000000     0          
H100     H      0.213210000000     0.747580000000     0.406050000000     0          
H101     H      0.167030000000     0.725250000000     0.476950000000     0          
H102     H      0.136640000000     0.760270000000     0.393140000000     0          
H103     H      0.200290000000     0.627420000000     0.426390000000     0          
H104     H      0.117400000000     0.627730000000     0.413300000000     0          
Zr1      Zr     0.333950000000     0.292670000000     0.466430000000     0          
Zr2      Zr     0.201960000000     0.268890000000     0.370640000000     0          
Zr3      Zr     0.285930000000     0.178100000000     0.447420000000     0          
O4       O      0.207400000000     0.207800000000     0.434100000000     0          
O5       O      0.361000000000     0.164430000000     0.396600000000     0          
O6       O      0.260700000000     0.160380000000     0.322500000000     0          
O7       O      0.114900000000     0.250300000000     0.323200000000     0          
O8       O      0.209100000000     0.222010000000     0.274400000000     0          
O9       O      0.250600000000     0.176200000000     0.562100000000     0          
O10      O      0.293000000000     0.242400000000     0.380100000000     0          
O11      O      0.405400000000     0.263100000000     0.407500000000     0          
O12      O      0.345400000000     0.224500000000     0.529400000000     0          
O13      O      0.167400000000     0.175160000000     0.649700000000     0          
O14      O      0.254500000000     0.191790000000     0.713200000000     0          
O15      O      0.653900000000     0.832690000000     0.352800000000     0          
O16      O      0.239900000000     0.886600000000     0.949300000000     0          
O17      O      0.661300000000     0.867610000000     0.469700000000     0          
O18      O      0.159900000000     0.867500000000     0.009900000000     0          
O19      O      0.911600000000     0.195800000000     0.037300000000     0          
C20      C      0.199100000000     0.088200000000     0.122200000000     0          
C21      C      0.213000000000     0.157500000000     0.196900000000     0          
C22      C      0.205300000000     0.173900000000     0.706900000000     0          
C23      C      0.139800000000     0.089800000000     0.988700000000     0          
C24      C      0.189700000000     0.150200000000     0.778400000000     0          
C25      C      0.230400000000     0.181600000000     0.272100000000     0          
C26      C      0.152400000000     0.038400000000     0.983500000000     0          
C27      C      0.158800000000     0.110900000000     0.914400000000     0          
C28      C      0.195300000000     0.895600000000     0.979100000000     0          
C29      C      0.179900000000     0.945000000000     0.979500000000     0          
C30      C      0.220900000000     0.110900000000     0.190200000000     0          
C31      C      0.170900000000     0.112600000000     0.061100000000     0          
C32      C      0.186500000000     0.182200000000     0.134500000000     0          
C33      C      0.165500000000     0.159800000000     0.068000000000     0          
C34      C      0.078000000000     0.100200000000     0.998800000000     0          
C35      C      0.208000000000     0.135400000000     0.915500000000     0          
C36      C      0.128300000000     0.102400000000     0.843400000000     0          
C37      C      0.205900000000     0.024800000000     0.972900000000     0          
C38      C      0.220200000000     0.977700000000     0.970600000000     0          
C39      C      0.142900000000     0.122100000000     0.776500000000     0          
C40      C      0.224500000000     0.153900000000     0.848000000000     0          
C41      C      0.058100000000     0.085000000000     0.066200000000     0          
C42      C      0.126800000000     0.959200000000     0.991100000000     0          
C43      C      0.113700000000     0.005900000000     0.993900000000     0          
C44      C      0.981800000000     0.135900000000     0.043400000000     0          
C45      C      0.050300000000     0.134800000000     0.958700000000     0          
C46      C      0.001100000000     0.151000000000     0.980500000000     0          
C47      C      0.931500000000     0.161700000000     0.074300000000     0          
C48      C      0.009700000000     0.101600000000     0.092100000000     0          
C49      C      0.543200000000     0.973300000000     0.292800000000     0          
C50      C      0.474400000000     0.039600000000     0.305000000000     0          
C51      C      0.491100000000     0.103300000000     0.393600000000     0          
C52      C      0.396800000000     0.084400000000     0.339200000000     0          
C53      C      0.433000000000     0.112800000000     0.385100000000     0          
C54      C      0.583700000000     0.932800000000     0.407700000000     0          
C55      C      0.510900000000     0.066900000000     0.354000000000     0          
C56      C      0.549000000000     0.967400000000     0.371600000000     0          
C57      C      0.573100000000     0.944700000000     0.247100000000     0          
C58      C      0.417100000000     0.047700000000     0.299100000000     0          
C59      C      0.611200000000     0.903900000000     0.361300000000     0          
C60      C      0.645800000000     0.865400000000     0.397900000000     0          
C61      C      0.606300000000     0.909600000000     0.280900000000     0          
C62      C      0.411300000000     0.153900000000     0.421000000000     0          
O63      O      0.443500000000     0.177800000000     0.466200000000     0          
O64      O      0.911600000000     0.148600000000     0.138400000000     0          
C65      C      0.169700000000     0.266400000000     0.913300000000     0          
C66      C      0.159000000000     0.355100000000     0.904900000000     0          
C67      C      0.141500000000     0.305500000000     0.779400000000     0          
N68      N      0.159400000000     0.309200000000     0.865300000000     0          
O69      O      0.138000000000     0.259300000000     0.740700000000     0          
O70      O      0.327900000000     0.228300000000     0.513200000000     0          
O71      O      0.191200000000     0.198600000000     0.414200000000     0          
O72      O      0.249600000000     0.195100000000     0.545200000000     0          
O73      O      0.281300000000     0.244700000000     0.407500000000     0          
H74      H      0.239660000000     0.051420000000     0.965780000000     0          
H75      H      0.264770000000     0.967100000000     0.961440000000     0          
H76      H      0.092680000000     0.932960000000     0.998600000000     0          
H77      H      0.069460000000     0.016220000000     0.005200000000     0          
H78      H      0.478890000000     0.125590000000     0.067160000000     0          
H79      H      0.650380000000     0.090850000000     0.166250000000     0          
H80      H      0.613010000000     0.024500000000     0.238240000000     0          
H81      H      0.442340000000     0.941390000000     0.639130000000     0          
H82      H      0.474980000000     0.008790000000     0.591830000000     0          
H83      H      0.429740000000     0.049830000000     0.818250000000     0          
H84      H      0.370750000000     0.114240000000     0.756910000000     0          
H85      H      0.235780000000     0.140700000000     0.972450000000     0          
H86      H      0.116220000000     0.115190000000     0.719180000000     0          
H87      H      0.266620000000     0.172160000000     0.849500000000     0          
H88      H      0.295500000000     0.450310000000     0.883010000000     0          
H89      H      0.255020000000     0.409040000000     0.760430000000     0          
H90      H      0.317680000000     0.279130000000     0.861220000000     0          
H91      H      0.356630000000     0.319560000000     0.982030000000     0          
H92      H      0.090350000000     0.078710000000     0.839660000000     0          
H93      H      0.068230000000     0.150420000000     0.906510000000     0          
H94      H      0.976700000000     0.177980000000     0.943330000000     0          
H95      H      0.082030000000     0.057570000000     0.102910000000     0          
H96      H      0.995170000000     0.087860000000     0.148040000000     0          
H97      H      0.068300000000     0.250300000000     0.316140000000     0          
H98      H      0.358800000000     0.263100000000     0.400440000000     0          
H99      H      0.588500000000     0.929210000000     0.473500000000     0          
H100     H      0.213210000000     0.252420000000     0.906050000000     0          
H101     H      0.167030000000     0.274750000000     0.976950000000     0          
H102     H      0.136640000000     0.239730000000     0.893140000000     0          
H103     H      0.200290000000     0.372580000000     0.926390000000     0          
H104     H      0.117400000000     0.372270000000     0.913300000000     0          
C105     C      0.500000000000     0.005900000000     0.250000000000     0          
Zr1      Zr     0.666050000000     0.292670000000     0.033570000000     0          
Zr2      Zr     0.798040000000     0.268890000000     0.129360000000     0          
Zr3      Zr     0.714070000000     0.178100000000     0.052580000000     0          
O4       O      0.792600000000     0.207800000000     0.065900000000     0          
O5       O      0.639000000000     0.164430000000     0.103400000000     0          
O6       O      0.739300000000     0.160380000000     0.177500000000     0          
O7       O      0.885100000000     0.250300000000     0.176800000000     0          
O8       O      0.790900000000     0.222010000000     0.225600000000     0          
O9       O      0.749400000000     0.176200000000     0.937900000000     0          
O10      O      0.707000000000     0.242400000000     0.119900000000     0          
O11      O      0.594600000000     0.263100000000     0.092500000000     0          
O12      O      0.654600000000     0.224500000000     0.970600000000     0          
O13      O      0.832600000000     0.175160000000     0.850300000000     0          
O14      O      0.745500000000     0.191790000000     0.786800000000     0          
O15      O      0.346100000000     0.832690000000     0.147200000000     0          
O16      O      0.760100000000     0.886600000000     0.550700000000     0          
O17      O      0.338700000000     0.867610000000     0.030300000000     0          
O18      O      0.840100000000     0.867500000000     0.490100000000     0          
O19      O      0.088400000000     0.195800000000     0.462700000000     0          
C20      C      0.800900000000     0.088200000000     0.377800000000     0          
C21      C      0.787000000000     0.157500000000     0.303100000000     0          
C22      C      0.794700000000     0.173900000000     0.793100000000     0          
C23      C      0.860200000000     0.089800000000     0.511300000000     0          
C24      C      0.810300000000     0.150200000000     0.721600000000     0          
C25      C      0.769600000000     0.181600000000     0.227900000000     0          
C26      C      0.847600000000     0.038400000000     0.516500000000     0          
C27      C      0.841200000000     0.110900000000     0.585600000000     0          
C28      C      0.804700000000     0.895600000000     0.520900000000     0          
C29      C      0.820100000000     0.945000000000     0.520500000000     0          
C30      C      0.779100000000     0.110900000000     0.309800000000     0          
C31      C      0.829100000000     0.112600000000     0.438900000000     0          
C32      C      0.813500000000     0.182200000000     0.365500000000     0          
C33      C      0.834500000000     0.159800000000     0.432000000000     0          
C34      C      0.922000000000     0.100200000000     0.501200000000     0          
C35      C      0.792000000000     0.135400000000     0.584500000000     0          
C36      C      0.871700000000     0.102400000000     0.656600000000     0          
C37      C      0.794100000000     0.024800000000     0.527100000000     0          
C38      C      0.779800000000     0.977700000000     0.529400000000     0          
C39      C      0.857100000000     0.122100000000     0.723500000000     0          
C40      C      0.775500000000     0.153900000000     0.652000000000     0          
C41      C      0.941900000000     0.085000000000     0.433800000000     0          
C42      C      0.873200000000     0.959200000000     0.508900000000     0          
C43      C      0.886300000000     0.005900000000     0.506100000000     0          
C44      C      0.018200000000     0.135900000000     0.456600000000     0          
C45      C      0.949700000000     0.134800000000     0.541300000000     0          
C46      C      0.998900000000     0.151000000000     0.519500000000     0          
C47      C      0.068500000000     0.161700000000     0.425700000000     0          
C48      C      0.990300000000     0.101600000000     0.407900000000     0          
C49      C      0.456800000000     0.973300000000     0.207200000000     0          
C50      C      0.525600000000     0.039600000000     0.195000000000     0          
C51      C      0.508900000000     0.103300000000     0.106400000000     0          
C52      C      0.603200000000     0.084400000000     0.160800000000     0          
C53      C      0.567000000000     0.112800000000     0.114900000000     0          
C54      C      0.416300000000     0.932800000000     0.092300000000     0          
C55      C      0.489100000000     0.066900000000     0.146000000000     0          
C56      C      0.451000000000     0.967400000000     0.128400000000     0          
C57      C      0.426900000000     0.944700000000     0.252900000000     0          
C58      C      0.582900000000     0.047700000000     0.200900000000     0          
C59      C      0.388800000000     0.903900000000     0.138700000000     0          
C60      C      0.354200000000     0.865400000000     0.102100000000     0          
C61      C      0.393700000000     0.909600000000     0.219100000000     0          
C62      C      0.588700000000     0.153900000000     0.079000000000     0          
O63      O      0.556500000000     0.177800000000     0.033800000000     0          
O64      O      0.088400000000     0.148600000000     0.361600000000     0          
C65      C      0.830300000000     0.266400000000     0.586700000000     0          
C66      C      0.841000000000     0.355100000000     0.595100000000     0          
C67      C      0.858500000000     0.305500000000     0.720600000000     0          
N68      N      0.840600000000     0.309200000000     0.634700000000     0          
O69      O      0.862000000000     0.259300000000     0.759300000000     0          
O70      O      0.672100000000     0.228300000000     0.986800000000     0          
O71      O      0.808800000000     0.198600000000     0.085800000000     0          
O72      O      0.750400000000     0.195100000000     0.954800000000     0          
O73      O      0.718700000000     0.244700000000     0.092500000000     0          
H74      H      0.760340000000     0.051420000000     0.534220000000     0          
H75      H      0.735230000000     0.967100000000     0.538560000000     0          
H76      H      0.907320000000     0.932960000000     0.501400000000     0          
H77      H      0.930540000000     0.016220000000     0.494800000000     0          
H78      H      0.521110000000     0.125590000000     0.432840000000     0          
H79      H      0.349620000000     0.090850000000     0.333750000000     0          
H80      H      0.386990000000     0.024500000000     0.261760000000     0          
H81      H      0.557660000000     0.941390000000     0.860870000000     0          
H82      H      0.525020000000     0.008790000000     0.908170000000     0          
H83      H      0.570260000000     0.049830000000     0.681750000000     0          
H84      H      0.629250000000     0.114240000000     0.743090000000     0          
H85      H      0.764220000000     0.140700000000     0.527550000000     0          
H86      H      0.883780000000     0.115190000000     0.780820000000     0          
H87      H      0.733380000000     0.172160000000     0.650500000000     0          
H88      H      0.704500000000     0.450310000000     0.616990000000     0          
H89      H      0.744980000000     0.409040000000     0.739570000000     0          
H90      H      0.682320000000     0.279130000000     0.638780000000     0          
H91      H      0.643370000000     0.319560000000     0.517970000000     0          
H92      H      0.909650000000     0.078710000000     0.660340000000     0          
H93      H      0.931770000000     0.150420000000     0.593490000000     0          
H94      H      0.023300000000     0.177980000000     0.556670000000     0          
H95      H      0.917970000000     0.057570000000     0.397090000000     0          
H96      H      0.004830000000     0.087860000000     0.351960000000     0          
H97      H      0.931700000000     0.250300000000     0.183860000000     0          
H98      H      0.641200000000     0.263100000000     0.099560000000     0          
H99      H      0.411500000000     0.929210000000     0.026500000000     0          
H100     H      0.786790000000     0.252420000000     0.593950000000     0          
H101     H      0.832970000000     0.274750000000     0.523050000000     0          
H102     H      0.863360000000     0.239730000000     0.606860000000     0          
H103     H      0.799710000000     0.372580000000     0.573610000000     0          
H104     H      0.882600000000     0.372270000000     0.586700000000     0          


