data_BOHXED

_audit_creation_method RASPA-1.0
_audit_creation_date 2020-11-2
_audit_author_name 'Rocio Bueno-Perez'

_cell_length_a    39.222
_cell_length_b    26.018
_cell_length_c    27.887
_cell_angle_alpha 90
_cell_angle_beta  90
_cell_angle_gamma 90
_cell_volume      28458.1

_symmetry_cell_setting          orthorhombic
_symmetry_space_group_name_Hall 'P 1'
_symmetry_space_group_name_H-M  'P 1'
_symmetry_Int_Tables_number     1

_symmetry_equiv_pos_as_xyz 'x,y,z'

loop_
_atom_site_label
_atom_site_type_symbol
_atom_site_fract_x
_atom_site_fract_y
_atom_site_fract_z
_atom_site_charge
Zr1      Zr     0.012530000000     0.191310000000     0.701010000000     0          
O1       O      0.985090000000     0.178400000000     0.638400000000     0          
O2       O      0.965930000000     0.241100000000     0.701800000000     0          
O3       O      0.969440000000     0.144000000000     0.730900000000     0          
O4       O      0.031260000000     0.112800000000     0.708300000000     0          
O5       O      0.025400000000     0.264800000000     0.681200000000     0          
O6       O      0.047370000000     0.185500000000     0.637100000000     0          
O7       O      0.066370000000     0.197100000000     0.732300000000     0          
O8       O      0.008300000000     0.227300000000     0.774800000000     0          
Zr2      Zr     0.939740000000     0.218790000000     0.633240000000     0          
Zr3      Zr     0.012320000000     0.172900000000     0.574880000000     0          
Zr4      Zr     0.986640000000     0.318880000000     0.684180000000     0          
H1       H      0.951700000000     0.239000000000     0.731400000000     0          
C1       C      0.938300000000     0.140800000000     0.720400000000     0          
Zr5      Zr     0.059650000000     0.272760000000     0.626670000000     0          
H2       H      0.067300000000     0.161700000000     0.640000000000     0          
O9       O      0.962180000000     0.290200000000     0.624200000000     0          
O10      O      0.921380000000     0.150600000000     0.593700000000     0          
O11      O      0.922440000000     0.163100000000     0.687500000000     0          
O12      O      0.965730000000     0.220700000000     0.561500000000     0          
O13      O      0.901710000000     0.251500000000     0.582700000000     0          
O14      O      0.902180000000     0.264100000000     0.675100000000     0          
O15      O      0.008650000000     0.181300000000     0.496600000000     0          
O16      O      0.031400000000     0.095900000000     0.581600000000     0          
O17      O      0.025080000000     0.250100000000     0.576600000000     0          
O18      O      0.968440000000     0.118800000000     0.558000000000     0          
O19      O      0.066800000000     0.172800000000     0.542800000000     0          
O20      O      0.017490000000     0.334600000000     0.618700000000     0          
O21      O      0.032320000000     0.365800000000     0.710000000000     0          
O22      O      0.973400000000     0.398800000000     0.672800000000     0          
O23      O      0.990810000000     0.310200000000     0.761500000000     0          
O24      O      0.932380000000     0.330300000000     0.707400000000     0          
C2       C      0.917800000000     0.104800000000     0.750500000000     0          
O25      O      0.078490000000     0.339000000000     0.668100000000     0          
O26      O      0.077500000000     0.325900000000     0.570100000000     0          
O27      O      0.097430000000     0.230900000000     0.584400000000     0          
O28      O      0.097180000000     0.243900000000     0.679500000000     0          
Zr6      Zr     0.986900000000     0.300220000000     0.558890000000     0          
C3       C      0.936900000000     0.121200000000     0.565100000000     0          
H3       H      0.951400000000     0.210300000000     0.533400000000     0          
C4       C      0.001200000000     0.221200000000     0.471700000000     0          
C5       C      0.060600000000     0.076800000000     0.587500000000     0          
H4       H      0.025400000000     0.370800000000     0.614100000000     0          
C6       C      0.063300000000     0.364500000000     0.700900000000     0          
C7       C      0.883000000000     0.096100000000     0.748600000000     0          
N1       N      0.931500000000     0.075400000000     0.784000000000     0          
C8       C      0.062000000000     0.345500000000     0.534300000000     0          
O29      O      0.973100000000     0.380700000000     0.551300000000     0          
O30      O      0.992400000000     0.266800000000     0.484700000000     0          
O31      O      0.031020000000     0.339900000000     0.523400000000     0          
O32      O      0.932140000000     0.304300000000     0.534300000000     0          
C9       C      0.915360000000     0.088300000000     0.535500000000     0          
C10      C      0.001900000000     0.213600000000     0.419000000000     0          
O33      O      0.084400000000     0.096400000000     0.614100000000     0          
C11      C      0.085400000000     0.395500000000     0.733500000000     0          
H5       H      0.866700000000     0.111600000000     0.727900000000     0          
C12      C      0.877700000000     0.060200000000     0.783200000000     0          
N2       N      0.907200000000     0.048100000000     0.804600000000     0          
C13      C      0.082900000000     0.379100000000     0.503500000000     0          
C14      C      0.949400000000     0.410700000000     0.558400000000     0          
N3       N      0.931590000000     0.055600000000     0.501700000000     0          
C15      C      0.879610000000     0.084800000000     0.528100000000     0          
C16      C      0.996100000000     0.246300000000     0.380300000000     0          
N4       N      0.009600000000     0.165500000000     0.401800000000     0          
N5       N      0.071800000000     0.428500000000     0.764200000000     0          
C17      C      0.119400000000     0.395500000000     0.740700000000     0          
C18      C      0.845300000000     0.036000000000     0.801200000000     0          
C19      C      0.117800000000     0.385700000000     0.501800000000     0          
N6       N      0.067400000000     0.411300000000     0.471500000000     0          
O34      O      0.934600000000     0.445800000000     0.535800000000     0          
N7       N      0.905860000000     0.031900000000     0.473500000000     0          
H6       H      0.862600000000     0.102700000000     0.545800000000     0          
C20      C      0.873740000000     0.050000000000     0.489800000000     0          
H7       H      0.989900000000     0.281500000000     0.381500000000     0          
C21      C      0.001100000000     0.217200000000     0.340600000000     0          
N8       N      0.009200000000     0.168600000000     0.354000000000     0          
N9       N      0.094900000000     0.450700000000     0.791500000000     0          
C22      C      0.123900000000     0.430500000000     0.777700000000     0          
H8       H      0.136300000000     0.376000000000     0.724400000000     0          
C23      C      0.123800000000     0.421600000000     0.466800000000     0          
H9       H      0.134300000000     0.368700000000     0.521000000000     0          
N10      N      0.092500000000     0.437000000000     0.449500000000     0          
C24      C      0.843600000000     0.034600000000     0.465700000000     0          
C25      C      0.999900000000     0.227400000000     0.288300000000     0          
C26      C      0.156100000000     0.445900000000     0.802900000000     0          
C27      C      0.155300000000     0.444600000000     0.448500000000     0          
O41?     O      0.083300000000     0.106100000000     0.677700000000     0          
C36?     C      0.061300000000     0.094500000000     0.709900000000     0          
O42?     O      0.020200000000     0.439200000000     0.627400000000     0          
C37?     C      0.991900000000     0.434900000000     0.654100000000     0          
N15?     N      0.036500000000     0.027400000000     0.692000000000     0          
C44?     C      0.019500000000     0.072100000000     0.688800000000     0          
C45?     C      0.071900000000     0.022400000000     0.709000000000     0          
Zr1      Zr     0.987470000000     0.808690000000     0.701010000000     0          
O1       O      0.014910000000     0.821600000000     0.638400000000     0          
O2       O      0.034070000000     0.758900000000     0.701800000000     0          
O3       O      0.030560000000     0.856000000000     0.730900000000     0          
O4       O      0.968740000000     0.887200000000     0.708300000000     0          
O5       O      0.974600000000     0.735200000000     0.681200000000     0          
O6       O      0.952630000000     0.814500000000     0.637100000000     0          
O7       O      0.933630000000     0.802900000000     0.732300000000     0          
O8       O      0.991700000000     0.772700000000     0.774800000000     0          
Zr2      Zr     0.060260000000     0.781210000000     0.633240000000     0          
Zr3      Zr     0.987680000000     0.827100000000     0.574880000000     0          
Zr4      Zr     0.013360000000     0.681120000000     0.684180000000     0          
H1       H      0.048300000000     0.761000000000     0.731400000000     0          
C1       C      0.061700000000     0.859200000000     0.720400000000     0          
Zr5      Zr     0.940350000000     0.727240000000     0.626670000000     0          
H2       H      0.932700000000     0.838300000000     0.640000000000     0          
O9       O      0.037820000000     0.709800000000     0.624200000000     0          
O10      O      0.078620000000     0.849400000000     0.593700000000     0          
O11      O      0.077560000000     0.836900000000     0.687500000000     0          
O12      O      0.034270000000     0.779300000000     0.561500000000     0          
O13      O      0.098290000000     0.748500000000     0.582700000000     0          
O14      O      0.097820000000     0.735900000000     0.675100000000     0          
O15      O      0.991350000000     0.818700000000     0.496600000000     0          
O16      O      0.968600000000     0.904100000000     0.581600000000     0          
O17      O      0.974920000000     0.749900000000     0.576600000000     0          
O18      O      0.031560000000     0.881200000000     0.558000000000     0          
O19      O      0.933200000000     0.827200000000     0.542800000000     0          
O20      O      0.982510000000     0.665400000000     0.618700000000     0          
O21      O      0.967680000000     0.634200000000     0.710000000000     0          
O22      O      0.026600000000     0.601200000000     0.672800000000     0          
O23      O      0.009190000000     0.689800000000     0.761500000000     0          
O24      O      0.067620000000     0.669700000000     0.707400000000     0          
C2       C      0.082200000000     0.895200000000     0.750500000000     0          
O25      O      0.921510000000     0.661000000000     0.668100000000     0          
O26      O      0.922500000000     0.674100000000     0.570100000000     0          
O27      O      0.902570000000     0.769100000000     0.584400000000     0          
O28      O      0.902820000000     0.756100000000     0.679500000000     0          
Zr6      Zr     0.013100000000     0.699780000000     0.558890000000     0          
C3       C      0.063100000000     0.878800000000     0.565100000000     0          
H3       H      0.048600000000     0.789700000000     0.533400000000     0          
C4       C      0.998800000000     0.778800000000     0.471700000000     0          
C5       C      0.939400000000     0.923200000000     0.587500000000     0          
H4       H      0.974600000000     0.629200000000     0.614100000000     0          
C6       C      0.936700000000     0.635500000000     0.700900000000     0          
C7       C      0.117000000000     0.903900000000     0.748600000000     0          
N1       N      0.068500000000     0.924600000000     0.784000000000     0          
C8       C      0.938000000000     0.654500000000     0.534300000000     0          
O29      O      0.026900000000     0.619300000000     0.551300000000     0          
O30      O      0.007600000000     0.733200000000     0.484700000000     0          
O31      O      0.968980000000     0.660100000000     0.523400000000     0          
O32      O      0.067860000000     0.695700000000     0.534300000000     0          
C9       C      0.084640000000     0.911700000000     0.535500000000     0          
C10      C      0.998100000000     0.786400000000     0.419000000000     0          
O33      O      0.915600000000     0.903600000000     0.614100000000     0          
C11      C      0.914600000000     0.604500000000     0.733500000000     0          
H5       H      0.133300000000     0.888400000000     0.727900000000     0          
C12      C      0.122300000000     0.939800000000     0.783200000000     0          
N2       N      0.092800000000     0.951900000000     0.804600000000     0          
C13      C      0.917100000000     0.620900000000     0.503500000000     0          
C14      C      0.050600000000     0.589300000000     0.558400000000     0          
N3       N      0.068410000000     0.944400000000     0.501700000000     0          
C15      C      0.120390000000     0.915200000000     0.528100000000     0          
C16      C      0.003900000000     0.753700000000     0.380300000000     0          
N4       N      0.990400000000     0.834500000000     0.401800000000     0          
N5       N      0.928200000000     0.571500000000     0.764200000000     0          
C17      C      0.880600000000     0.604500000000     0.740700000000     0          
C18      C      0.154700000000     0.964000000000     0.801200000000     0          
C19      C      0.882200000000     0.614300000000     0.501800000000     0          
N6       N      0.932600000000     0.588700000000     0.471500000000     0          
O34      O      0.065400000000     0.554200000000     0.535800000000     0          
N7       N      0.094140000000     0.968100000000     0.473500000000     0          
H6       H      0.137400000000     0.897300000000     0.545800000000     0          
C20      C      0.126260000000     0.950000000000     0.489800000000     0          
H7       H      0.010100000000     0.718500000000     0.381500000000     0          
C21      C      0.998900000000     0.782800000000     0.340600000000     0          
N8       N      0.990800000000     0.831400000000     0.354000000000     0          
N9       N      0.905100000000     0.549300000000     0.791500000000     0          
C22      C      0.876100000000     0.569500000000     0.777700000000     0          
H8       H      0.863700000000     0.624000000000     0.724400000000     0          
C23      C      0.876200000000     0.578400000000     0.466800000000     0          
H9       H      0.865700000000     0.631300000000     0.521000000000     0          
N10      N      0.907500000000     0.563000000000     0.449500000000     0          
C24      C      0.156400000000     0.965400000000     0.465700000000     0          
C25      C      0.000100000000     0.772600000000     0.288300000000     0          
C26      C      0.843900000000     0.554100000000     0.802900000000     0          
C27      C      0.844700000000     0.555400000000     0.448500000000     0          
O41?     O      0.916700000000     0.893900000000     0.677700000000     0          
C36?     C      0.938700000000     0.905500000000     0.709900000000     0          
O42?     O      0.979800000000     0.560800000000     0.627400000000     0          
C37?     C      0.008100000000     0.565100000000     0.654100000000     0          
N15?     N      0.963500000000     0.972600000000     0.692000000000     0          
C44?     C      0.980500000000     0.927900000000     0.688800000000     0          
C45?     C      0.928100000000     0.977600000000     0.709000000000     0          
Zr1      Zr     0.237470000000     0.441310000000     0.951010000000     0          
O1       O      0.264910000000     0.428400000000     0.888400000000     0          
O2       O      0.284070000000     0.491100000000     0.951800000000     0          
O3       O      0.280560000000     0.394000000000     0.980900000000     0          
O4       O      0.218740000000     0.362800000000     0.958300000000     0          
O5       O      0.224600000000     0.514800000000     0.931200000000     0          
O6       O      0.202630000000     0.435500000000     0.887100000000     0          
O7       O      0.183630000000     0.447100000000     0.982300000000     0          
O8       O      0.241700000000     0.477300000000     0.024800000000     0          
Zr2      Zr     0.310260000000     0.468790000000     0.883240000000     0          
Zr3      Zr     0.237680000000     0.422900000000     0.824880000000     0          
Zr4      Zr     0.263360000000     0.568880000000     0.934180000000     0          
H1       H      0.298300000000     0.489000000000     0.981400000000     0          
C1       C      0.311700000000     0.390800000000     0.970400000000     0          
Zr5      Zr     0.190350000000     0.522760000000     0.876670000000     0          
H2       H      0.182700000000     0.411700000000     0.890000000000     0          
O9       O      0.287820000000     0.540200000000     0.874200000000     0          
O10      O      0.328620000000     0.400600000000     0.843700000000     0          
O11      O      0.327560000000     0.413100000000     0.937500000000     0          
O12      O      0.284270000000     0.470700000000     0.811500000000     0          
O13      O      0.348290000000     0.501500000000     0.832700000000     0          
O14      O      0.347820000000     0.514100000000     0.925100000000     0          
O15      O      0.241350000000     0.431300000000     0.746600000000     0          
O16      O      0.218600000000     0.345900000000     0.831600000000     0          
O17      O      0.224920000000     0.500100000000     0.826600000000     0          
O18      O      0.281560000000     0.368800000000     0.808000000000     0          
O19      O      0.183200000000     0.422800000000     0.792800000000     0          
O20      O      0.232510000000     0.584600000000     0.868700000000     0          
O21      O      0.217680000000     0.615800000000     0.960000000000     0          
O22      O      0.276600000000     0.648800000000     0.922800000000     0          
O23      O      0.259190000000     0.560200000000     0.011500000000     0          
O24      O      0.317620000000     0.580300000000     0.957400000000     0          
C2       C      0.332200000000     0.354800000000     0.000500000000     0          
O25      O      0.171510000000     0.589000000000     0.918100000000     0          
O26      O      0.172500000000     0.575900000000     0.820100000000     0          
O27      O      0.152570000000     0.480900000000     0.834400000000     0          
O28      O      0.152820000000     0.493900000000     0.929500000000     0          
Zr6      Zr     0.263100000000     0.550220000000     0.808890000000     0          
C3       C      0.313100000000     0.371200000000     0.815100000000     0          
H3       H      0.298600000000     0.460300000000     0.783400000000     0          
C4       C      0.248800000000     0.471200000000     0.721700000000     0          
C5       C      0.189400000000     0.326800000000     0.837500000000     0          
H4       H      0.224600000000     0.620800000000     0.864100000000     0          
C6       C      0.186700000000     0.614500000000     0.950900000000     0          
C7       C      0.367000000000     0.346100000000     0.998600000000     0          
N1       N      0.318500000000     0.325400000000     0.034000000000     0          
C8       C      0.188000000000     0.595500000000     0.784300000000     0          
O29      O      0.276900000000     0.630700000000     0.801300000000     0          
O30      O      0.257600000000     0.516800000000     0.734700000000     0          
O31      O      0.218980000000     0.589900000000     0.773400000000     0          
O32      O      0.317860000000     0.554300000000     0.784300000000     0          
C9       C      0.334640000000     0.338300000000     0.785500000000     0          
C10      C      0.248100000000     0.463600000000     0.669000000000     0          
O33      O      0.165600000000     0.346400000000     0.864100000000     0          
C11      C      0.164600000000     0.645500000000     0.983500000000     0          
H5       H      0.383300000000     0.361600000000     0.977900000000     0          
C12      C      0.372300000000     0.310200000000     0.033200000000     0          
N2       N      0.342800000000     0.298100000000     0.054600000000     0          
C13      C      0.167100000000     0.629100000000     0.753500000000     0          
C14      C      0.300600000000     0.660700000000     0.808400000000     0          
N3       N      0.318410000000     0.305600000000     0.751700000000     0          
C15      C      0.370390000000     0.334800000000     0.778100000000     0          
C16      C      0.253900000000     0.496300000000     0.630300000000     0          
N4       N      0.240400000000     0.415500000000     0.651800000000     0          
N5       N      0.178200000000     0.678500000000     0.014200000000     0          
C17      C      0.130600000000     0.645500000000     0.990700000000     0          
C18      C      0.404700000000     0.286000000000     0.051200000000     0          
C19      C      0.132200000000     0.635700000000     0.751800000000     0          
N6       N      0.182600000000     0.661300000000     0.721500000000     0          
O34      O      0.315400000000     0.695800000000     0.785800000000     0          
N7       N      0.344140000000     0.281900000000     0.723500000000     0          
H6       H      0.387400000000     0.352700000000     0.795800000000     0          
C20      C      0.376260000000     0.300000000000     0.739800000000     0          
H7       H      0.260100000000     0.531500000000     0.631500000000     0          
C21      C      0.248900000000     0.467200000000     0.590600000000     0          
N8       N      0.240800000000     0.418600000000     0.604000000000     0          
N9       N      0.155100000000     0.700700000000     0.041500000000     0          
C22      C      0.126100000000     0.680500000000     0.027700000000     0          
H8       H      0.113700000000     0.626000000000     0.974400000000     0          
C23      C      0.126200000000     0.671600000000     0.716800000000     0          
H9       H      0.115700000000     0.618700000000     0.771000000000     0          
N10      N      0.157500000000     0.687000000000     0.699500000000     0          
C24      C      0.406400000000     0.284600000000     0.715700000000     0          
C25      C      0.250100000000     0.477400000000     0.538300000000     0          
C26      C      0.093900000000     0.695900000000     0.052900000000     0          
C27      C      0.094700000000     0.694600000000     0.698500000000     0          
O41?     O      0.166700000000     0.356100000000     0.927700000000     0          
C36?     C      0.188700000000     0.344500000000     0.959900000000     0          
O42?     O      0.229800000000     0.689200000000     0.877400000000     0          
C37?     C      0.258100000000     0.684900000000     0.904100000000     0          
N15?     N      0.213500000000     0.277400000000     0.942000000000     0          
C44?     C      0.230500000000     0.322100000000     0.938800000000     0          
C45?     C      0.178100000000     0.272400000000     0.959000000000     0          
Zr1      Zr     0.762530000000     0.558690000000     0.951010000000     0          
O1       O      0.735090000000     0.571600000000     0.888400000000     0          
O2       O      0.715930000000     0.508900000000     0.951800000000     0          
O3       O      0.719440000000     0.606000000000     0.980900000000     0          
O4       O      0.781260000000     0.637200000000     0.958300000000     0          
O5       O      0.775400000000     0.485200000000     0.931200000000     0          
O6       O      0.797370000000     0.564500000000     0.887100000000     0          
O7       O      0.816370000000     0.552900000000     0.982300000000     0          
O8       O      0.758300000000     0.522700000000     0.024800000000     0          
Zr2      Zr     0.689740000000     0.531210000000     0.883240000000     0          
Zr3      Zr     0.762320000000     0.577100000000     0.824880000000     0          
Zr4      Zr     0.736640000000     0.431120000000     0.934180000000     0          
H1       H      0.701700000000     0.511000000000     0.981400000000     0          
C1       C      0.688300000000     0.609200000000     0.970400000000     0          
Zr5      Zr     0.809650000000     0.477240000000     0.876670000000     0          
H2       H      0.817300000000     0.588300000000     0.890000000000     0          
O9       O      0.712180000000     0.459800000000     0.874200000000     0          
O10      O      0.671380000000     0.599400000000     0.843700000000     0          
O11      O      0.672440000000     0.586900000000     0.937500000000     0          
O12      O      0.715730000000     0.529300000000     0.811500000000     0          
O13      O      0.651710000000     0.498500000000     0.832700000000     0          
O14      O      0.652180000000     0.485900000000     0.925100000000     0          
O15      O      0.758650000000     0.568700000000     0.746600000000     0          
O16      O      0.781400000000     0.654100000000     0.831600000000     0          
O17      O      0.775080000000     0.499900000000     0.826600000000     0          
O18      O      0.718440000000     0.631200000000     0.808000000000     0          
O19      O      0.816800000000     0.577200000000     0.792800000000     0          
O20      O      0.767490000000     0.415400000000     0.868700000000     0          
O21      O      0.782320000000     0.384200000000     0.960000000000     0          
O22      O      0.723400000000     0.351200000000     0.922800000000     0          
O23      O      0.740810000000     0.439800000000     0.011500000000     0          
O24      O      0.682380000000     0.419700000000     0.957400000000     0          
C2       C      0.667800000000     0.645200000000     0.000500000000     0          
O25      O      0.828490000000     0.411000000000     0.918100000000     0          
O26      O      0.827500000000     0.424100000000     0.820100000000     0          
O27      O      0.847430000000     0.519100000000     0.834400000000     0          
O28      O      0.847180000000     0.506100000000     0.929500000000     0          
Zr6      Zr     0.736900000000     0.449780000000     0.808890000000     0          
C3       C      0.686900000000     0.628800000000     0.815100000000     0          
H3       H      0.701400000000     0.539700000000     0.783400000000     0          
C4       C      0.751200000000     0.528800000000     0.721700000000     0          
C5       C      0.810600000000     0.673200000000     0.837500000000     0          
H4       H      0.775400000000     0.379200000000     0.864100000000     0          
C6       C      0.813300000000     0.385500000000     0.950900000000     0          
C7       C      0.633000000000     0.653900000000     0.998600000000     0          
N1       N      0.681500000000     0.674600000000     0.034000000000     0          
C8       C      0.812000000000     0.404500000000     0.784300000000     0          
O29      O      0.723100000000     0.369300000000     0.801300000000     0          
O30      O      0.742400000000     0.483200000000     0.734700000000     0          
O31      O      0.781020000000     0.410100000000     0.773400000000     0          
O32      O      0.682140000000     0.445700000000     0.784300000000     0          
C9       C      0.665360000000     0.661700000000     0.785500000000     0          
C10      C      0.751900000000     0.536400000000     0.669000000000     0          
O33      O      0.834400000000     0.653600000000     0.864100000000     0          
C11      C      0.835400000000     0.354500000000     0.983500000000     0          
H5       H      0.616700000000     0.638400000000     0.977900000000     0          
C12      C      0.627700000000     0.689800000000     0.033200000000     0          
N2       N      0.657200000000     0.701900000000     0.054600000000     0          
C13      C      0.832900000000     0.370900000000     0.753500000000     0          
C14      C      0.699400000000     0.339300000000     0.808400000000     0          
N3       N      0.681590000000     0.694400000000     0.751700000000     0          
C15      C      0.629610000000     0.665200000000     0.778100000000     0          
C16      C      0.746100000000     0.503700000000     0.630300000000     0          
N4       N      0.759600000000     0.584500000000     0.651800000000     0          
N5       N      0.821800000000     0.321500000000     0.014200000000     0          
C17      C      0.869400000000     0.354500000000     0.990700000000     0          
C18      C      0.595300000000     0.714000000000     0.051200000000     0          
C19      C      0.867800000000     0.364300000000     0.751800000000     0          
N6       N      0.817400000000     0.338700000000     0.721500000000     0          
O34      O      0.684600000000     0.304200000000     0.785800000000     0          
N7       N      0.655860000000     0.718100000000     0.723500000000     0          
H6       H      0.612600000000     0.647300000000     0.795800000000     0          
C20      C      0.623740000000     0.700000000000     0.739800000000     0          
H7       H      0.739900000000     0.468500000000     0.631500000000     0          
C21      C      0.751100000000     0.532800000000     0.590600000000     0          
N8       N      0.759200000000     0.581400000000     0.604000000000     0          
N9       N      0.844900000000     0.299300000000     0.041500000000     0          
C22      C      0.873900000000     0.319500000000     0.027700000000     0          
H8       H      0.886300000000     0.374000000000     0.974400000000     0          
C23      C      0.873800000000     0.328400000000     0.716800000000     0          
H9       H      0.884300000000     0.381300000000     0.771000000000     0          
N10      N      0.842500000000     0.313000000000     0.699500000000     0          
C24      C      0.593600000000     0.715400000000     0.715700000000     0          
C25      C      0.749900000000     0.522600000000     0.538300000000     0          
C26      C      0.906100000000     0.304100000000     0.052900000000     0          
C27      C      0.905300000000     0.305400000000     0.698500000000     0          
O41?     O      0.833300000000     0.643900000000     0.927700000000     0          
C36?     C      0.811300000000     0.655500000000     0.959900000000     0          
O42?     O      0.770200000000     0.310800000000     0.877400000000     0          
C37?     C      0.741900000000     0.315100000000     0.904100000000     0          
N15?     N      0.786500000000     0.722600000000     0.942000000000     0          
C44?     C      0.769500000000     0.677900000000     0.938800000000     0          
C45?     C      0.821900000000     0.727600000000     0.959000000000     0          
Zr1      Zr     0.012530000000     0.691310000000     0.201010000000     0          
O1       O      0.985090000000     0.678400000000     0.138400000000     0          
O2       O      0.965930000000     0.741100000000     0.201800000000     0          
O3       O      0.969440000000     0.644000000000     0.230900000000     0          
O4       O      0.031260000000     0.612800000000     0.208300000000     0          
O5       O      0.025400000000     0.764800000000     0.181200000000     0          
O6       O      0.047370000000     0.685500000000     0.137100000000     0          
O7       O      0.066370000000     0.697100000000     0.232300000000     0          
O8       O      0.008300000000     0.727300000000     0.274800000000     0          
Zr2      Zr     0.939740000000     0.718790000000     0.133240000000     0          
Zr3      Zr     0.012320000000     0.672900000000     0.074880000000     0          
Zr4      Zr     0.986640000000     0.818880000000     0.184180000000     0          
H1       H      0.951700000000     0.739000000000     0.231400000000     0          
C1       C      0.938300000000     0.640800000000     0.220400000000     0          
Zr5      Zr     0.059650000000     0.772760000000     0.126670000000     0          
H2       H      0.067300000000     0.661700000000     0.140000000000     0          
O9       O      0.962180000000     0.790200000000     0.124200000000     0          
O10      O      0.921380000000     0.650600000000     0.093700000000     0          
O11      O      0.922440000000     0.663100000000     0.187500000000     0          
O12      O      0.965730000000     0.720700000000     0.061500000000     0          
O13      O      0.901710000000     0.751500000000     0.082700000000     0          
O14      O      0.902180000000     0.764100000000     0.175100000000     0          
O15      O      0.008650000000     0.681300000000     0.996600000000     0          
O16      O      0.031400000000     0.595900000000     0.081600000000     0          
O17      O      0.025080000000     0.750100000000     0.076600000000     0          
O18      O      0.968440000000     0.618800000000     0.058000000000     0          
O19      O      0.066800000000     0.672800000000     0.042800000000     0          
O20      O      0.017490000000     0.834600000000     0.118700000000     0          
O21      O      0.032320000000     0.865800000000     0.210000000000     0          
O22      O      0.973400000000     0.898800000000     0.172800000000     0          
O23      O      0.990810000000     0.810200000000     0.261500000000     0          
O24      O      0.932380000000     0.830300000000     0.207400000000     0          
C2       C      0.917800000000     0.604800000000     0.250500000000     0          
O25      O      0.078490000000     0.839000000000     0.168100000000     0          
O26      O      0.077500000000     0.825900000000     0.070100000000     0          
O27      O      0.097430000000     0.730900000000     0.084400000000     0          
O28      O      0.097180000000     0.743900000000     0.179500000000     0          
Zr6      Zr     0.986900000000     0.800220000000     0.058890000000     0          
C3       C      0.936900000000     0.621200000000     0.065100000000     0          
H3       H      0.951400000000     0.710300000000     0.033400000000     0          
C4       C      0.001200000000     0.721200000000     0.971700000000     0          
C5       C      0.060600000000     0.576800000000     0.087500000000     0          
H4       H      0.025400000000     0.870800000000     0.114100000000     0          
C6       C      0.063300000000     0.864500000000     0.200900000000     0          
C7       C      0.883000000000     0.596100000000     0.248600000000     0          
N1       N      0.931500000000     0.575400000000     0.284000000000     0          
C8       C      0.062000000000     0.845500000000     0.034300000000     0          
O29      O      0.973100000000     0.880700000000     0.051300000000     0          
O30      O      0.992400000000     0.766800000000     0.984700000000     0          
O31      O      0.031020000000     0.839900000000     0.023400000000     0          
O32      O      0.932140000000     0.804300000000     0.034300000000     0          
C9       C      0.915360000000     0.588300000000     0.035500000000     0          
C10      C      0.001900000000     0.713600000000     0.919000000000     0          
O33      O      0.084400000000     0.596400000000     0.114100000000     0          
C11      C      0.085400000000     0.895500000000     0.233500000000     0          
H5       H      0.866700000000     0.611600000000     0.227900000000     0          
C12      C      0.877700000000     0.560200000000     0.283200000000     0          
N2       N      0.907200000000     0.548100000000     0.304600000000     0          
C13      C      0.082900000000     0.879100000000     0.003500000000     0          
C14      C      0.949400000000     0.910700000000     0.058400000000     0          
N3       N      0.931590000000     0.555600000000     0.001700000000     0          
C15      C      0.879610000000     0.584800000000     0.028100000000     0          
C16      C      0.996100000000     0.746300000000     0.880300000000     0          
N4       N      0.009600000000     0.665500000000     0.901800000000     0          
N5       N      0.071800000000     0.928500000000     0.264200000000     0          
C17      C      0.119400000000     0.895500000000     0.240700000000     0          
C18      C      0.845300000000     0.536000000000     0.301200000000     0          
C19      C      0.117800000000     0.885700000000     0.001800000000     0          
N6       N      0.067400000000     0.911300000000     0.971500000000     0          
O34      O      0.934600000000     0.945800000000     0.035800000000     0          
N7       N      0.905860000000     0.531900000000     0.973500000000     0          
H6       H      0.862600000000     0.602700000000     0.045800000000     0          
C20      C      0.873740000000     0.550000000000     0.989800000000     0          
H7       H      0.989900000000     0.781500000000     0.881500000000     0          
C21      C      0.001100000000     0.717200000000     0.840600000000     0          
N8       N      0.009200000000     0.668600000000     0.854000000000     0          
N9       N      0.094900000000     0.950700000000     0.291500000000     0          
C22      C      0.123900000000     0.930500000000     0.277700000000     0          
H8       H      0.136300000000     0.876000000000     0.224400000000     0          
C23      C      0.123800000000     0.921600000000     0.966800000000     0          
H9       H      0.134300000000     0.868700000000     0.021000000000     0          
N10      N      0.092500000000     0.937000000000     0.949500000000     0          
C24      C      0.843600000000     0.534600000000     0.965700000000     0          
C25      C      0.999900000000     0.727400000000     0.788300000000     0          
C26      C      0.156100000000     0.945900000000     0.302900000000     0          
C27      C      0.155300000000     0.944600000000     0.948500000000     0          
O41?     O      0.083300000000     0.606100000000     0.177700000000     0          
C36?     C      0.061300000000     0.594500000000     0.209900000000     0          
O42?     O      0.020200000000     0.939200000000     0.127400000000     0          
C37?     C      0.991900000000     0.934900000000     0.154100000000     0          
N15?     N      0.036500000000     0.527400000000     0.192000000000     0          
C44?     C      0.019500000000     0.572100000000     0.188800000000     0          
C45?     C      0.071900000000     0.522400000000     0.209000000000     0          
Zr1      Zr     0.987470000000     0.308690000000     0.201010000000     0          
O1       O      0.014910000000     0.321600000000     0.138400000000     0          
O2       O      0.034070000000     0.258900000000     0.201800000000     0          
O3       O      0.030560000000     0.356000000000     0.230900000000     0          
O4       O      0.968740000000     0.387200000000     0.208300000000     0          
O5       O      0.974600000000     0.235200000000     0.181200000000     0          
O6       O      0.952630000000     0.314500000000     0.137100000000     0          
O7       O      0.933630000000     0.302900000000     0.232300000000     0          
O8       O      0.991700000000     0.272700000000     0.274800000000     0          
Zr2      Zr     0.060260000000     0.281210000000     0.133240000000     0          
Zr3      Zr     0.987680000000     0.327100000000     0.074880000000     0          
Zr4      Zr     0.013360000000     0.181120000000     0.184180000000     0          
H1       H      0.048300000000     0.261000000000     0.231400000000     0          
C1       C      0.061700000000     0.359200000000     0.220400000000     0          
Zr5      Zr     0.940350000000     0.227240000000     0.126670000000     0          
H2       H      0.932700000000     0.338300000000     0.140000000000     0          
O9       O      0.037820000000     0.209800000000     0.124200000000     0          
O10      O      0.078620000000     0.349400000000     0.093700000000     0          
O11      O      0.077560000000     0.336900000000     0.187500000000     0          
O12      O      0.034270000000     0.279300000000     0.061500000000     0          
O13      O      0.098290000000     0.248500000000     0.082700000000     0          
O14      O      0.097820000000     0.235900000000     0.175100000000     0          
O15      O      0.991350000000     0.318700000000     0.996600000000     0          
O16      O      0.968600000000     0.404100000000     0.081600000000     0          
O17      O      0.974920000000     0.249900000000     0.076600000000     0          
O18      O      0.031560000000     0.381200000000     0.058000000000     0          
O19      O      0.933200000000     0.327200000000     0.042800000000     0          
O20      O      0.982510000000     0.165400000000     0.118700000000     0          
O21      O      0.967680000000     0.134200000000     0.210000000000     0          
O22      O      0.026600000000     0.101200000000     0.172800000000     0          
O23      O      0.009190000000     0.189800000000     0.261500000000     0          
O24      O      0.067620000000     0.169700000000     0.207400000000     0          
C2       C      0.082200000000     0.395200000000     0.250500000000     0          
O25      O      0.921510000000     0.161000000000     0.168100000000     0          
O26      O      0.922500000000     0.174100000000     0.070100000000     0          
O27      O      0.902570000000     0.269100000000     0.084400000000     0          
O28      O      0.902820000000     0.256100000000     0.179500000000     0          
Zr6      Zr     0.013100000000     0.199780000000     0.058890000000     0          
C3       C      0.063100000000     0.378800000000     0.065100000000     0          
H3       H      0.048600000000     0.289700000000     0.033400000000     0          
C4       C      0.998800000000     0.278800000000     0.971700000000     0          
C5       C      0.939400000000     0.423200000000     0.087500000000     0          
H4       H      0.974600000000     0.129200000000     0.114100000000     0          
C6       C      0.936700000000     0.135500000000     0.200900000000     0          
C7       C      0.117000000000     0.403900000000     0.248600000000     0          
N1       N      0.068500000000     0.424600000000     0.284000000000     0          
C8       C      0.938000000000     0.154500000000     0.034300000000     0          
O29      O      0.026900000000     0.119300000000     0.051300000000     0          
O30      O      0.007600000000     0.233200000000     0.984700000000     0          
O31      O      0.968980000000     0.160100000000     0.023400000000     0          
O32      O      0.067860000000     0.195700000000     0.034300000000     0          
C9       C      0.084640000000     0.411700000000     0.035500000000     0          
C10      C      0.998100000000     0.286400000000     0.919000000000     0          
O33      O      0.915600000000     0.403600000000     0.114100000000     0          
C11      C      0.914600000000     0.104500000000     0.233500000000     0          
H5       H      0.133300000000     0.388400000000     0.227900000000     0          
C12      C      0.122300000000     0.439800000000     0.283200000000     0          
N2       N      0.092800000000     0.451900000000     0.304600000000     0          
C13      C      0.917100000000     0.120900000000     0.003500000000     0          
C14      C      0.050600000000     0.089300000000     0.058400000000     0          
N3       N      0.068410000000     0.444400000000     0.001700000000     0          
C15      C      0.120390000000     0.415200000000     0.028100000000     0          
C16      C      0.003900000000     0.253700000000     0.880300000000     0          
N4       N      0.990400000000     0.334500000000     0.901800000000     0          
N5       N      0.928200000000     0.071500000000     0.264200000000     0          
C17      C      0.880600000000     0.104500000000     0.240700000000     0          
C18      C      0.154700000000     0.464000000000     0.301200000000     0          
C19      C      0.882200000000     0.114300000000     0.001800000000     0          
N6       N      0.932600000000     0.088700000000     0.971500000000     0          
O34      O      0.065400000000     0.054200000000     0.035800000000     0          
N7       N      0.094140000000     0.468100000000     0.973500000000     0          
H6       H      0.137400000000     0.397300000000     0.045800000000     0          
C20      C      0.126260000000     0.450000000000     0.989800000000     0          
H7       H      0.010100000000     0.218500000000     0.881500000000     0          
C21      C      0.998900000000     0.282800000000     0.840600000000     0          
N8       N      0.990800000000     0.331400000000     0.854000000000     0          
N9       N      0.905100000000     0.049300000000     0.291500000000     0          
C22      C      0.876100000000     0.069500000000     0.277700000000     0          
H8       H      0.863700000000     0.124000000000     0.224400000000     0          
C23      C      0.876200000000     0.078400000000     0.966800000000     0          
H9       H      0.865700000000     0.131300000000     0.021000000000     0          
N10      N      0.907500000000     0.063000000000     0.949500000000     0          
C24      C      0.156400000000     0.465400000000     0.965700000000     0          
C25      C      0.000100000000     0.272600000000     0.788300000000     0          
C26      C      0.843900000000     0.054100000000     0.302900000000     0          
C27      C      0.844700000000     0.055400000000     0.948500000000     0          
O41?     O      0.916700000000     0.393900000000     0.177700000000     0          
C36?     C      0.938700000000     0.405500000000     0.209900000000     0          
O42?     O      0.979800000000     0.060800000000     0.127400000000     0          
C37?     C      0.008100000000     0.065100000000     0.154100000000     0          
N15?     N      0.963500000000     0.472600000000     0.192000000000     0          
C44?     C      0.980500000000     0.427900000000     0.188800000000     0          
C45?     C      0.928100000000     0.477600000000     0.209000000000     0          
Zr1      Zr     0.237470000000     0.941310000000     0.451010000000     0          
O1       O      0.264910000000     0.928400000000     0.388400000000     0          
O2       O      0.284070000000     0.991100000000     0.451800000000     0          
O3       O      0.280560000000     0.894000000000     0.480900000000     0          
O4       O      0.218740000000     0.862800000000     0.458300000000     0          
O5       O      0.224600000000     0.014800000000     0.431200000000     0          
O6       O      0.202630000000     0.935500000000     0.387100000000     0          
O7       O      0.183630000000     0.947100000000     0.482300000000     0          
O8       O      0.241700000000     0.977300000000     0.524800000000     0          
Zr2      Zr     0.310260000000     0.968790000000     0.383240000000     0          
Zr3      Zr     0.237680000000     0.922900000000     0.324880000000     0          
Zr4      Zr     0.263360000000     0.068880000000     0.434180000000     0          
H1       H      0.298300000000     0.989000000000     0.481400000000     0          
C1       C      0.311700000000     0.890800000000     0.470400000000     0          
Zr5      Zr     0.190350000000     0.022760000000     0.376670000000     0          
H2       H      0.182700000000     0.911700000000     0.390000000000     0          
O9       O      0.287820000000     0.040200000000     0.374200000000     0          
O10      O      0.328620000000     0.900600000000     0.343700000000     0          
O11      O      0.327560000000     0.913100000000     0.437500000000     0          
O12      O      0.284270000000     0.970700000000     0.311500000000     0          
O13      O      0.348290000000     0.001500000000     0.332700000000     0          
O14      O      0.347820000000     0.014100000000     0.425100000000     0          
O15      O      0.241350000000     0.931300000000     0.246600000000     0          
O16      O      0.218600000000     0.845900000000     0.331600000000     0          
O17      O      0.224920000000     0.000100000000     0.326600000000     0          
O18      O      0.281560000000     0.868800000000     0.308000000000     0          
O19      O      0.183200000000     0.922800000000     0.292800000000     0          
O20      O      0.232510000000     0.084600000000     0.368700000000     0          
O21      O      0.217680000000     0.115800000000     0.460000000000     0          
O22      O      0.276600000000     0.148800000000     0.422800000000     0          
O23      O      0.259190000000     0.060200000000     0.511500000000     0          
O24      O      0.317620000000     0.080300000000     0.457400000000     0          
C2       C      0.332200000000     0.854800000000     0.500500000000     0          
O25      O      0.171510000000     0.089000000000     0.418100000000     0          
O26      O      0.172500000000     0.075900000000     0.320100000000     0          
O27      O      0.152570000000     0.980900000000     0.334400000000     0          
O28      O      0.152820000000     0.993900000000     0.429500000000     0          
Zr6      Zr     0.263100000000     0.050220000000     0.308890000000     0          
C3       C      0.313100000000     0.871200000000     0.315100000000     0          
H3       H      0.298600000000     0.960300000000     0.283400000000     0          
C4       C      0.248800000000     0.971200000000     0.221700000000     0          
C5       C      0.189400000000     0.826800000000     0.337500000000     0          
H4       H      0.224600000000     0.120800000000     0.364100000000     0          
C6       C      0.186700000000     0.114500000000     0.450900000000     0          
C7       C      0.367000000000     0.846100000000     0.498600000000     0          
N1       N      0.318500000000     0.825400000000     0.534000000000     0          
C8       C      0.188000000000     0.095500000000     0.284300000000     0          
O29      O      0.276900000000     0.130700000000     0.301300000000     0          
O30      O      0.257600000000     0.016800000000     0.234700000000     0          
O31      O      0.218980000000     0.089900000000     0.273400000000     0          
O32      O      0.317860000000     0.054300000000     0.284300000000     0          
C9       C      0.334640000000     0.838300000000     0.285500000000     0          
C10      C      0.248100000000     0.963600000000     0.169000000000     0          
O33      O      0.165600000000     0.846400000000     0.364100000000     0          
C11      C      0.164600000000     0.145500000000     0.483500000000     0          
H5       H      0.383300000000     0.861600000000     0.477900000000     0          
C12      C      0.372300000000     0.810200000000     0.533200000000     0          
N2       N      0.342800000000     0.798100000000     0.554600000000     0          
C13      C      0.167100000000     0.129100000000     0.253500000000     0          
C14      C      0.300600000000     0.160700000000     0.308400000000     0          
N3       N      0.318410000000     0.805600000000     0.251700000000     0          
C15      C      0.370390000000     0.834800000000     0.278100000000     0          
C16      C      0.253900000000     0.996300000000     0.130300000000     0          
N4       N      0.240400000000     0.915500000000     0.151800000000     0          
N5       N      0.178200000000     0.178500000000     0.514200000000     0          
C17      C      0.130600000000     0.145500000000     0.490700000000     0          
C18      C      0.404700000000     0.786000000000     0.551200000000     0          
C19      C      0.132200000000     0.135700000000     0.251800000000     0          
N6       N      0.182600000000     0.161300000000     0.221500000000     0          
O34      O      0.315400000000     0.195800000000     0.285800000000     0          
N7       N      0.344140000000     0.781900000000     0.223500000000     0          
H6       H      0.387400000000     0.852700000000     0.295800000000     0          
C20      C      0.376260000000     0.800000000000     0.239800000000     0          
H7       H      0.260100000000     0.031500000000     0.131500000000     0          
C21      C      0.248900000000     0.967200000000     0.090600000000     0          
N8       N      0.240800000000     0.918600000000     0.104000000000     0          
N9       N      0.155100000000     0.200700000000     0.541500000000     0          
C22      C      0.126100000000     0.180500000000     0.527700000000     0          
H8       H      0.113700000000     0.126000000000     0.474400000000     0          
C23      C      0.126200000000     0.171600000000     0.216800000000     0          
H9       H      0.115700000000     0.118700000000     0.271000000000     0          
N10      N      0.157500000000     0.187000000000     0.199500000000     0          
C24      C      0.406400000000     0.784600000000     0.215700000000     0          
C25      C      0.250100000000     0.977400000000     0.038300000000     0          
C26      C      0.093900000000     0.195900000000     0.552900000000     0          
C27      C      0.094700000000     0.194600000000     0.198500000000     0          
O41?     O      0.166700000000     0.856100000000     0.427700000000     0          
C36?     C      0.188700000000     0.844500000000     0.459900000000     0          
O42?     O      0.229800000000     0.189200000000     0.377400000000     0          
C37?     C      0.258100000000     0.184900000000     0.404100000000     0          
N15?     N      0.213500000000     0.777400000000     0.442000000000     0          
C44?     C      0.230500000000     0.822100000000     0.438800000000     0          
C45?     C      0.178100000000     0.772400000000     0.459000000000     0          
Zr1      Zr     0.762530000000     0.058690000000     0.451010000000     0          
O1       O      0.735090000000     0.071600000000     0.388400000000     0          
O2       O      0.715930000000     0.008900000000     0.451800000000     0          
O3       O      0.719440000000     0.106000000000     0.480900000000     0          
O4       O      0.781260000000     0.137200000000     0.458300000000     0          
O5       O      0.775400000000     0.985200000000     0.431200000000     0          
O6       O      0.797370000000     0.064500000000     0.387100000000     0          
O7       O      0.816370000000     0.052900000000     0.482300000000     0          
O8       O      0.758300000000     0.022700000000     0.524800000000     0          
Zr2      Zr     0.689740000000     0.031210000000     0.383240000000     0          
Zr3      Zr     0.762320000000     0.077100000000     0.324880000000     0          
Zr4      Zr     0.736640000000     0.931120000000     0.434180000000     0          
H1       H      0.701700000000     0.011000000000     0.481400000000     0          
C1       C      0.688300000000     0.109200000000     0.470400000000     0          
Zr5      Zr     0.809650000000     0.977240000000     0.376670000000     0          
H2       H      0.817300000000     0.088300000000     0.390000000000     0          
O9       O      0.712180000000     0.959800000000     0.374200000000     0          
O10      O      0.671380000000     0.099400000000     0.343700000000     0          
O11      O      0.672440000000     0.086900000000     0.437500000000     0          
O12      O      0.715730000000     0.029300000000     0.311500000000     0          
O13      O      0.651710000000     0.998500000000     0.332700000000     0          
O14      O      0.652180000000     0.985900000000     0.425100000000     0          
O15      O      0.758650000000     0.068700000000     0.246600000000     0          
O16      O      0.781400000000     0.154100000000     0.331600000000     0          
O17      O      0.775080000000     0.999900000000     0.326600000000     0          
O18      O      0.718440000000     0.131200000000     0.308000000000     0          
O19      O      0.816800000000     0.077200000000     0.292800000000     0          
O20      O      0.767490000000     0.915400000000     0.368700000000     0          
O21      O      0.782320000000     0.884200000000     0.460000000000     0          
O22      O      0.723400000000     0.851200000000     0.422800000000     0          
O23      O      0.740810000000     0.939800000000     0.511500000000     0          
O24      O      0.682380000000     0.919700000000     0.457400000000     0          
C2       C      0.667800000000     0.145200000000     0.500500000000     0          
O25      O      0.828490000000     0.911000000000     0.418100000000     0          
O26      O      0.827500000000     0.924100000000     0.320100000000     0          
O27      O      0.847430000000     0.019100000000     0.334400000000     0          
O28      O      0.847180000000     0.006100000000     0.429500000000     0          
Zr6      Zr     0.736900000000     0.949780000000     0.308890000000     0          
C3       C      0.686900000000     0.128800000000     0.315100000000     0          
H3       H      0.701400000000     0.039700000000     0.283400000000     0          
C4       C      0.751200000000     0.028800000000     0.221700000000     0          
C5       C      0.810600000000     0.173200000000     0.337500000000     0          
H4       H      0.775400000000     0.879200000000     0.364100000000     0          
C6       C      0.813300000000     0.885500000000     0.450900000000     0          
C7       C      0.633000000000     0.153900000000     0.498600000000     0          
N1       N      0.681500000000     0.174600000000     0.534000000000     0          
C8       C      0.812000000000     0.904500000000     0.284300000000     0          
O29      O      0.723100000000     0.869300000000     0.301300000000     0          
O30      O      0.742400000000     0.983200000000     0.234700000000     0          
O31      O      0.781020000000     0.910100000000     0.273400000000     0          
O32      O      0.682140000000     0.945700000000     0.284300000000     0          
C9       C      0.665360000000     0.161700000000     0.285500000000     0          
C10      C      0.751900000000     0.036400000000     0.169000000000     0          
O33      O      0.834400000000     0.153600000000     0.364100000000     0          
C11      C      0.835400000000     0.854500000000     0.483500000000     0          
H5       H      0.616700000000     0.138400000000     0.477900000000     0          
C12      C      0.627700000000     0.189800000000     0.533200000000     0          
N2       N      0.657200000000     0.201900000000     0.554600000000     0          
C13      C      0.832900000000     0.870900000000     0.253500000000     0          
C14      C      0.699400000000     0.839300000000     0.308400000000     0          
N3       N      0.681590000000     0.194400000000     0.251700000000     0          
C15      C      0.629610000000     0.165200000000     0.278100000000     0          
C16      C      0.746100000000     0.003700000000     0.130300000000     0          
N4       N      0.759600000000     0.084500000000     0.151800000000     0          
N5       N      0.821800000000     0.821500000000     0.514200000000     0          
C17      C      0.869400000000     0.854500000000     0.490700000000     0          
C18      C      0.595300000000     0.214000000000     0.551200000000     0          
C19      C      0.867800000000     0.864300000000     0.251800000000     0          
N6       N      0.817400000000     0.838700000000     0.221500000000     0          
O34      O      0.684600000000     0.804200000000     0.285800000000     0          
N7       N      0.655860000000     0.218100000000     0.223500000000     0          
H6       H      0.612600000000     0.147300000000     0.295800000000     0          
C20      C      0.623740000000     0.200000000000     0.239800000000     0          
H7       H      0.739900000000     0.968500000000     0.131500000000     0          
C21      C      0.751100000000     0.032800000000     0.090600000000     0          
N8       N      0.759200000000     0.081400000000     0.104000000000     0          
N9       N      0.844900000000     0.799300000000     0.541500000000     0          
C22      C      0.873900000000     0.819500000000     0.527700000000     0          
H8       H      0.886300000000     0.874000000000     0.474400000000     0          
C23      C      0.873800000000     0.828400000000     0.216800000000     0          
H9       H      0.884300000000     0.881300000000     0.271000000000     0          
N10      N      0.842500000000     0.813000000000     0.199500000000     0          
C24      C      0.593600000000     0.215400000000     0.215700000000     0          
C25      C      0.749900000000     0.022600000000     0.038300000000     0          
C26      C      0.906100000000     0.804100000000     0.552900000000     0          
C27      C      0.905300000000     0.805400000000     0.198500000000     0          
O41?     O      0.833300000000     0.143900000000     0.427700000000     0          
C36?     C      0.811300000000     0.155500000000     0.459900000000     0          
O42?     O      0.770200000000     0.810800000000     0.377400000000     0          
C37?     C      0.741900000000     0.815100000000     0.404100000000     0          
N15?     N      0.786500000000     0.222600000000     0.442000000000     0          
C44?     C      0.769500000000     0.177900000000     0.438800000000     0          
C45?     C      0.821900000000     0.227600000000     0.459000000000     0          
Zr1      Zr     0.512530000000     0.191310000000     0.201010000000     0          
O1       O      0.485090000000     0.178400000000     0.138400000000     0          
O2       O      0.465930000000     0.241100000000     0.201800000000     0          
O3       O      0.469440000000     0.144000000000     0.230900000000     0          
O4       O      0.531260000000     0.112800000000     0.208300000000     0          
O5       O      0.525400000000     0.264800000000     0.181200000000     0          
O6       O      0.547370000000     0.185500000000     0.137100000000     0          
O7       O      0.566370000000     0.197100000000     0.232300000000     0          
O8       O      0.508300000000     0.227300000000     0.274800000000     0          
Zr2      Zr     0.439740000000     0.218790000000     0.133240000000     0          
Zr3      Zr     0.512320000000     0.172900000000     0.074880000000     0          
Zr4      Zr     0.486640000000     0.318880000000     0.184180000000     0          
H1       H      0.451700000000     0.239000000000     0.231400000000     0          
C1       C      0.438300000000     0.140800000000     0.220400000000     0          
Zr5      Zr     0.559650000000     0.272760000000     0.126670000000     0          
H2       H      0.567300000000     0.161700000000     0.140000000000     0          
O9       O      0.462180000000     0.290200000000     0.124200000000     0          
O10      O      0.421380000000     0.150600000000     0.093700000000     0          
O11      O      0.422440000000     0.163100000000     0.187500000000     0          
O12      O      0.465730000000     0.220700000000     0.061500000000     0          
O13      O      0.401710000000     0.251500000000     0.082700000000     0          
O14      O      0.402180000000     0.264100000000     0.175100000000     0          
O15      O      0.508650000000     0.181300000000     0.996600000000     0          
O16      O      0.531400000000     0.095900000000     0.081600000000     0          
O17      O      0.525080000000     0.250100000000     0.076600000000     0          
O18      O      0.468440000000     0.118800000000     0.058000000000     0          
O19      O      0.566800000000     0.172800000000     0.042800000000     0          
O20      O      0.517490000000     0.334600000000     0.118700000000     0          
O21      O      0.532320000000     0.365800000000     0.210000000000     0          
O22      O      0.473400000000     0.398800000000     0.172800000000     0          
O23      O      0.490810000000     0.310200000000     0.261500000000     0          
O24      O      0.432380000000     0.330300000000     0.207400000000     0          
C2       C      0.417800000000     0.104800000000     0.250500000000     0          
O25      O      0.578490000000     0.339000000000     0.168100000000     0          
O26      O      0.577500000000     0.325900000000     0.070100000000     0          
O27      O      0.597430000000     0.230900000000     0.084400000000     0          
O28      O      0.597180000000     0.243900000000     0.179500000000     0          
Zr6      Zr     0.486900000000     0.300220000000     0.058890000000     0          
C3       C      0.436900000000     0.121200000000     0.065100000000     0          
H3       H      0.451400000000     0.210300000000     0.033400000000     0          
C4       C      0.501200000000     0.221200000000     0.971700000000     0          
C5       C      0.560600000000     0.076800000000     0.087500000000     0          
H4       H      0.525400000000     0.370800000000     0.114100000000     0          
C6       C      0.563300000000     0.364500000000     0.200900000000     0          
C7       C      0.383000000000     0.096100000000     0.248600000000     0          
N1       N      0.431500000000     0.075400000000     0.284000000000     0          
C8       C      0.562000000000     0.345500000000     0.034300000000     0          
O29      O      0.473100000000     0.380700000000     0.051300000000     0          
O30      O      0.492400000000     0.266800000000     0.984700000000     0          
O31      O      0.531020000000     0.339900000000     0.023400000000     0          
O32      O      0.432140000000     0.304300000000     0.034300000000     0          
C9       C      0.415360000000     0.088300000000     0.035500000000     0          
C10      C      0.501900000000     0.213600000000     0.919000000000     0          
O33      O      0.584400000000     0.096400000000     0.114100000000     0          
C11      C      0.585400000000     0.395500000000     0.233500000000     0          
H5       H      0.366700000000     0.111600000000     0.227900000000     0          
C12      C      0.377700000000     0.060200000000     0.283200000000     0          
N2       N      0.407200000000     0.048100000000     0.304600000000     0          
C13      C      0.582900000000     0.379100000000     0.003500000000     0          
C14      C      0.449400000000     0.410700000000     0.058400000000     0          
N3       N      0.431590000000     0.055600000000     0.001700000000     0          
C15      C      0.379610000000     0.084800000000     0.028100000000     0          
C16      C      0.496100000000     0.246300000000     0.880300000000     0          
N4       N      0.509600000000     0.165500000000     0.901800000000     0          
N5       N      0.571800000000     0.428500000000     0.264200000000     0          
C17      C      0.619400000000     0.395500000000     0.240700000000     0          
C18      C      0.345300000000     0.036000000000     0.301200000000     0          
C19      C      0.617800000000     0.385700000000     0.001800000000     0          
N6       N      0.567400000000     0.411300000000     0.971500000000     0          
O34      O      0.434600000000     0.445800000000     0.035800000000     0          
N7       N      0.405860000000     0.031900000000     0.973500000000     0          
H6       H      0.362600000000     0.102700000000     0.045800000000     0          
C20      C      0.373740000000     0.050000000000     0.989800000000     0          
H7       H      0.489900000000     0.281500000000     0.881500000000     0          
C21      C      0.501100000000     0.217200000000     0.840600000000     0          
N8       N      0.509200000000     0.168600000000     0.854000000000     0          
N9       N      0.594900000000     0.450700000000     0.291500000000     0          
C22      C      0.623900000000     0.430500000000     0.277700000000     0          
H8       H      0.636300000000     0.376000000000     0.224400000000     0          
C23      C      0.623800000000     0.421600000000     0.966800000000     0          
H9       H      0.634300000000     0.368700000000     0.021000000000     0          
N10      N      0.592500000000     0.437000000000     0.949500000000     0          
C24      C      0.343600000000     0.034600000000     0.965700000000     0          
C25      C      0.499900000000     0.227400000000     0.788300000000     0          
C26      C      0.656100000000     0.445900000000     0.302900000000     0          
C27      C      0.655300000000     0.444600000000     0.948500000000     0          
O41?     O      0.583300000000     0.106100000000     0.177700000000     0          
C36?     C      0.561300000000     0.094500000000     0.209900000000     0          
O42?     O      0.520200000000     0.439200000000     0.127400000000     0          
C37?     C      0.491900000000     0.434900000000     0.154100000000     0          
N15?     N      0.536500000000     0.027400000000     0.192000000000     0          
C44?     C      0.519500000000     0.072100000000     0.188800000000     0          
C45?     C      0.571900000000     0.022400000000     0.209000000000     0          
Zr1      Zr     0.487470000000     0.808690000000     0.201010000000     0          
O1       O      0.514910000000     0.821600000000     0.138400000000     0          
O2       O      0.534070000000     0.758900000000     0.201800000000     0          
O3       O      0.530560000000     0.856000000000     0.230900000000     0          
O4       O      0.468740000000     0.887200000000     0.208300000000     0          
O5       O      0.474600000000     0.735200000000     0.181200000000     0          
O6       O      0.452630000000     0.814500000000     0.137100000000     0          
O7       O      0.433630000000     0.802900000000     0.232300000000     0          
O8       O      0.491700000000     0.772700000000     0.274800000000     0          
Zr2      Zr     0.560260000000     0.781210000000     0.133240000000     0          
Zr3      Zr     0.487680000000     0.827100000000     0.074880000000     0          
Zr4      Zr     0.513360000000     0.681120000000     0.184180000000     0          
H1       H      0.548300000000     0.761000000000     0.231400000000     0          
C1       C      0.561700000000     0.859200000000     0.220400000000     0          
Zr5      Zr     0.440350000000     0.727240000000     0.126670000000     0          
H2       H      0.432700000000     0.838300000000     0.140000000000     0          
O9       O      0.537820000000     0.709800000000     0.124200000000     0          
O10      O      0.578620000000     0.849400000000     0.093700000000     0          
O11      O      0.577560000000     0.836900000000     0.187500000000     0          
O12      O      0.534270000000     0.779300000000     0.061500000000     0          
O13      O      0.598290000000     0.748500000000     0.082700000000     0          
O14      O      0.597820000000     0.735900000000     0.175100000000     0          
O15      O      0.491350000000     0.818700000000     0.996600000000     0          
O16      O      0.468600000000     0.904100000000     0.081600000000     0          
O17      O      0.474920000000     0.749900000000     0.076600000000     0          
O18      O      0.531560000000     0.881200000000     0.058000000000     0          
O19      O      0.433200000000     0.827200000000     0.042800000000     0          
O20      O      0.482510000000     0.665400000000     0.118700000000     0          
O21      O      0.467680000000     0.634200000000     0.210000000000     0          
O22      O      0.526600000000     0.601200000000     0.172800000000     0          
O23      O      0.509190000000     0.689800000000     0.261500000000     0          
O24      O      0.567620000000     0.669700000000     0.207400000000     0          
C2       C      0.582200000000     0.895200000000     0.250500000000     0          
O25      O      0.421510000000     0.661000000000     0.168100000000     0          
O26      O      0.422500000000     0.674100000000     0.070100000000     0          
O27      O      0.402570000000     0.769100000000     0.084400000000     0          
O28      O      0.402820000000     0.756100000000     0.179500000000     0          
Zr6      Zr     0.513100000000     0.699780000000     0.058890000000     0          
C3       C      0.563100000000     0.878800000000     0.065100000000     0          
H3       H      0.548600000000     0.789700000000     0.033400000000     0          
C4       C      0.498800000000     0.778800000000     0.971700000000     0          
C5       C      0.439400000000     0.923200000000     0.087500000000     0          
H4       H      0.474600000000     0.629200000000     0.114100000000     0          
C6       C      0.436700000000     0.635500000000     0.200900000000     0          
C7       C      0.617000000000     0.903900000000     0.248600000000     0          
N1       N      0.568500000000     0.924600000000     0.284000000000     0          
C8       C      0.438000000000     0.654500000000     0.034300000000     0          
O29      O      0.526900000000     0.619300000000     0.051300000000     0          
O30      O      0.507600000000     0.733200000000     0.984700000000     0          
O31      O      0.468980000000     0.660100000000     0.023400000000     0          
O32      O      0.567860000000     0.695700000000     0.034300000000     0          
C9       C      0.584640000000     0.911700000000     0.035500000000     0          
C10      C      0.498100000000     0.786400000000     0.919000000000     0          
O33      O      0.415600000000     0.903600000000     0.114100000000     0          
C11      C      0.414600000000     0.604500000000     0.233500000000     0          
H5       H      0.633300000000     0.888400000000     0.227900000000     0          
C12      C      0.622300000000     0.939800000000     0.283200000000     0          
N2       N      0.592800000000     0.951900000000     0.304600000000     0          
C13      C      0.417100000000     0.620900000000     0.003500000000     0          
C14      C      0.550600000000     0.589300000000     0.058400000000     0          
N3       N      0.568410000000     0.944400000000     0.001700000000     0          
C15      C      0.620390000000     0.915200000000     0.028100000000     0          
C16      C      0.503900000000     0.753700000000     0.880300000000     0          
N4       N      0.490400000000     0.834500000000     0.901800000000     0          
N5       N      0.428200000000     0.571500000000     0.264200000000     0          
C17      C      0.380600000000     0.604500000000     0.240700000000     0          
C18      C      0.654700000000     0.964000000000     0.301200000000     0          
C19      C      0.382200000000     0.614300000000     0.001800000000     0          
N6       N      0.432600000000     0.588700000000     0.971500000000     0          
O34      O      0.565400000000     0.554200000000     0.035800000000     0          
N7       N      0.594140000000     0.968100000000     0.973500000000     0          
H6       H      0.637400000000     0.897300000000     0.045800000000     0          
C20      C      0.626260000000     0.950000000000     0.989800000000     0          
H7       H      0.510100000000     0.718500000000     0.881500000000     0          
C21      C      0.498900000000     0.782800000000     0.840600000000     0          
N8       N      0.490800000000     0.831400000000     0.854000000000     0          
N9       N      0.405100000000     0.549300000000     0.291500000000     0          
C22      C      0.376100000000     0.569500000000     0.277700000000     0          
H8       H      0.363700000000     0.624000000000     0.224400000000     0          
C23      C      0.376200000000     0.578400000000     0.966800000000     0          
H9       H      0.365700000000     0.631300000000     0.021000000000     0          
N10      N      0.407500000000     0.563000000000     0.949500000000     0          
C24      C      0.656400000000     0.965400000000     0.965700000000     0          
C25      C      0.500100000000     0.772600000000     0.788300000000     0          
C26      C      0.343900000000     0.554100000000     0.302900000000     0          
C27      C      0.344700000000     0.555400000000     0.948500000000     0          
O41?     O      0.416700000000     0.893900000000     0.177700000000     0          
C36?     C      0.438700000000     0.905500000000     0.209900000000     0          
O42?     O      0.479800000000     0.560800000000     0.127400000000     0          
C37?     C      0.508100000000     0.565100000000     0.154100000000     0          
N15?     N      0.463500000000     0.972600000000     0.192000000000     0          
C44?     C      0.480500000000     0.927900000000     0.188800000000     0          
C45?     C      0.428100000000     0.977600000000     0.209000000000     0          
Zr1      Zr     0.737470000000     0.441310000000     0.451010000000     0          
O1       O      0.764910000000     0.428400000000     0.388400000000     0          
O2       O      0.784070000000     0.491100000000     0.451800000000     0          
O3       O      0.780560000000     0.394000000000     0.480900000000     0          
O4       O      0.718740000000     0.362800000000     0.458300000000     0          
O5       O      0.724600000000     0.514800000000     0.431200000000     0          
O6       O      0.702630000000     0.435500000000     0.387100000000     0          
O7       O      0.683630000000     0.447100000000     0.482300000000     0          
O8       O      0.741700000000     0.477300000000     0.524800000000     0          
Zr2      Zr     0.810260000000     0.468790000000     0.383240000000     0          
Zr3      Zr     0.737680000000     0.422900000000     0.324880000000     0          
Zr4      Zr     0.763360000000     0.568880000000     0.434180000000     0          
H1       H      0.798300000000     0.489000000000     0.481400000000     0          
C1       C      0.811700000000     0.390800000000     0.470400000000     0          
Zr5      Zr     0.690350000000     0.522760000000     0.376670000000     0          
H2       H      0.682700000000     0.411700000000     0.390000000000     0          
O9       O      0.787820000000     0.540200000000     0.374200000000     0          
O10      O      0.828620000000     0.400600000000     0.343700000000     0          
O11      O      0.827560000000     0.413100000000     0.437500000000     0          
O12      O      0.784270000000     0.470700000000     0.311500000000     0          
O13      O      0.848290000000     0.501500000000     0.332700000000     0          
O14      O      0.847820000000     0.514100000000     0.425100000000     0          
O15      O      0.741350000000     0.431300000000     0.246600000000     0          
O16      O      0.718600000000     0.345900000000     0.331600000000     0          
O17      O      0.724920000000     0.500100000000     0.326600000000     0          
O18      O      0.781560000000     0.368800000000     0.308000000000     0          
O19      O      0.683200000000     0.422800000000     0.292800000000     0          
O20      O      0.732510000000     0.584600000000     0.368700000000     0          
O21      O      0.717680000000     0.615800000000     0.460000000000     0          
O22      O      0.776600000000     0.648800000000     0.422800000000     0          
O23      O      0.759190000000     0.560200000000     0.511500000000     0          
O24      O      0.817620000000     0.580300000000     0.457400000000     0          
C2       C      0.832200000000     0.354800000000     0.500500000000     0          
O25      O      0.671510000000     0.589000000000     0.418100000000     0          
O26      O      0.672500000000     0.575900000000     0.320100000000     0          
O27      O      0.652570000000     0.480900000000     0.334400000000     0          
O28      O      0.652820000000     0.493900000000     0.429500000000     0          
Zr6      Zr     0.763100000000     0.550220000000     0.308890000000     0          
C3       C      0.813100000000     0.371200000000     0.315100000000     0          
H3       H      0.798600000000     0.460300000000     0.283400000000     0          
C4       C      0.748800000000     0.471200000000     0.221700000000     0          
C5       C      0.689400000000     0.326800000000     0.337500000000     0          
H4       H      0.724600000000     0.620800000000     0.364100000000     0          
C6       C      0.686700000000     0.614500000000     0.450900000000     0          
C7       C      0.867000000000     0.346100000000     0.498600000000     0          
N1       N      0.818500000000     0.325400000000     0.534000000000     0          
C8       C      0.688000000000     0.595500000000     0.284300000000     0          
O29      O      0.776900000000     0.630700000000     0.301300000000     0          
O30      O      0.757600000000     0.516800000000     0.234700000000     0          
O31      O      0.718980000000     0.589900000000     0.273400000000     0          
O32      O      0.817860000000     0.554300000000     0.284300000000     0          
C9       C      0.834640000000     0.338300000000     0.285500000000     0          
C10      C      0.748100000000     0.463600000000     0.169000000000     0          
O33      O      0.665600000000     0.346400000000     0.364100000000     0          
C11      C      0.664600000000     0.645500000000     0.483500000000     0          
H5       H      0.883300000000     0.361600000000     0.477900000000     0          
C12      C      0.872300000000     0.310200000000     0.533200000000     0          
N2       N      0.842800000000     0.298100000000     0.554600000000     0          
C13      C      0.667100000000     0.629100000000     0.253500000000     0          
C14      C      0.800600000000     0.660700000000     0.308400000000     0          
N3       N      0.818410000000     0.305600000000     0.251700000000     0          
C15      C      0.870390000000     0.334800000000     0.278100000000     0          
C16      C      0.753900000000     0.496300000000     0.130300000000     0          
N4       N      0.740400000000     0.415500000000     0.151800000000     0          
N5       N      0.678200000000     0.678500000000     0.514200000000     0          
C17      C      0.630600000000     0.645500000000     0.490700000000     0          
C18      C      0.904700000000     0.286000000000     0.551200000000     0          
C19      C      0.632200000000     0.635700000000     0.251800000000     0          
N6       N      0.682600000000     0.661300000000     0.221500000000     0          
O34      O      0.815400000000     0.695800000000     0.285800000000     0          
N7       N      0.844140000000     0.281900000000     0.223500000000     0          
H6       H      0.887400000000     0.352700000000     0.295800000000     0          
C20      C      0.876260000000     0.300000000000     0.239800000000     0          
H7       H      0.760100000000     0.531500000000     0.131500000000     0          
C21      C      0.748900000000     0.467200000000     0.090600000000     0          
N8       N      0.740800000000     0.418600000000     0.104000000000     0          
N9       N      0.655100000000     0.700700000000     0.541500000000     0          
C22      C      0.626100000000     0.680500000000     0.527700000000     0          
H8       H      0.613700000000     0.626000000000     0.474400000000     0          
C23      C      0.626200000000     0.671600000000     0.216800000000     0          
H9       H      0.615700000000     0.618700000000     0.271000000000     0          
N10      N      0.657500000000     0.687000000000     0.199500000000     0          
C24      C      0.906400000000     0.284600000000     0.215700000000     0          
C25      C      0.750100000000     0.477400000000     0.038300000000     0          
C26      C      0.593900000000     0.695900000000     0.552900000000     0          
C27      C      0.594700000000     0.694600000000     0.198500000000     0          
O41?     O      0.666700000000     0.356100000000     0.427700000000     0          
C36?     C      0.688700000000     0.344500000000     0.459900000000     0          
O42?     O      0.729800000000     0.689200000000     0.377400000000     0          
C37?     C      0.758100000000     0.684900000000     0.404100000000     0          
N15?     N      0.713500000000     0.277400000000     0.442000000000     0          
C44?     C      0.730500000000     0.322100000000     0.438800000000     0          
C45?     C      0.678100000000     0.272400000000     0.459000000000     0          
Zr1      Zr     0.262530000000     0.558690000000     0.451010000000     0          
O1       O      0.235090000000     0.571600000000     0.388400000000     0          
O2       O      0.215930000000     0.508900000000     0.451800000000     0          
O3       O      0.219440000000     0.606000000000     0.480900000000     0          
O4       O      0.281260000000     0.637200000000     0.458300000000     0          
O5       O      0.275400000000     0.485200000000     0.431200000000     0          
O6       O      0.297370000000     0.564500000000     0.387100000000     0          
O7       O      0.316370000000     0.552900000000     0.482300000000     0          
O8       O      0.258300000000     0.522700000000     0.524800000000     0          
Zr2      Zr     0.189740000000     0.531210000000     0.383240000000     0          
Zr3      Zr     0.262320000000     0.577100000000     0.324880000000     0          
Zr4      Zr     0.236640000000     0.431120000000     0.434180000000     0          
H1       H      0.201700000000     0.511000000000     0.481400000000     0          
C1       C      0.188300000000     0.609200000000     0.470400000000     0          
Zr5      Zr     0.309650000000     0.477240000000     0.376670000000     0          
H2       H      0.317300000000     0.588300000000     0.390000000000     0          
O9       O      0.212180000000     0.459800000000     0.374200000000     0          
O10      O      0.171380000000     0.599400000000     0.343700000000     0          
O11      O      0.172440000000     0.586900000000     0.437500000000     0          
O12      O      0.215730000000     0.529300000000     0.311500000000     0          
O13      O      0.151710000000     0.498500000000     0.332700000000     0          
O14      O      0.152180000000     0.485900000000     0.425100000000     0          
O15      O      0.258650000000     0.568700000000     0.246600000000     0          
O16      O      0.281400000000     0.654100000000     0.331600000000     0          
O17      O      0.275080000000     0.499900000000     0.326600000000     0          
O18      O      0.218440000000     0.631200000000     0.308000000000     0          
O19      O      0.316800000000     0.577200000000     0.292800000000     0          
O20      O      0.267490000000     0.415400000000     0.368700000000     0          
O21      O      0.282320000000     0.384200000000     0.460000000000     0          
O22      O      0.223400000000     0.351200000000     0.422800000000     0          
O23      O      0.240810000000     0.439800000000     0.511500000000     0          
O24      O      0.182380000000     0.419700000000     0.457400000000     0          
C2       C      0.167800000000     0.645200000000     0.500500000000     0          
O25      O      0.328490000000     0.411000000000     0.418100000000     0          
O26      O      0.327500000000     0.424100000000     0.320100000000     0          
O27      O      0.347430000000     0.519100000000     0.334400000000     0          
O28      O      0.347180000000     0.506100000000     0.429500000000     0          
Zr6      Zr     0.236900000000     0.449780000000     0.308890000000     0          
C3       C      0.186900000000     0.628800000000     0.315100000000     0          
H3       H      0.201400000000     0.539700000000     0.283400000000     0          
C4       C      0.251200000000     0.528800000000     0.221700000000     0          
C5       C      0.310600000000     0.673200000000     0.337500000000     0          
H4       H      0.275400000000     0.379200000000     0.364100000000     0          
C6       C      0.313300000000     0.385500000000     0.450900000000     0          
C7       C      0.133000000000     0.653900000000     0.498600000000     0          
N1       N      0.181500000000     0.674600000000     0.534000000000     0          
C8       C      0.312000000000     0.404500000000     0.284300000000     0          
O29      O      0.223100000000     0.369300000000     0.301300000000     0          
O30      O      0.242400000000     0.483200000000     0.234700000000     0          
O31      O      0.281020000000     0.410100000000     0.273400000000     0          
O32      O      0.182140000000     0.445700000000     0.284300000000     0          
C9       C      0.165360000000     0.661700000000     0.285500000000     0          
C10      C      0.251900000000     0.536400000000     0.169000000000     0          
O33      O      0.334400000000     0.653600000000     0.364100000000     0          
C11      C      0.335400000000     0.354500000000     0.483500000000     0          
H5       H      0.116700000000     0.638400000000     0.477900000000     0          
C12      C      0.127700000000     0.689800000000     0.533200000000     0          
N2       N      0.157200000000     0.701900000000     0.554600000000     0          
C13      C      0.332900000000     0.370900000000     0.253500000000     0          
C14      C      0.199400000000     0.339300000000     0.308400000000     0          
N3       N      0.181590000000     0.694400000000     0.251700000000     0          
C15      C      0.129610000000     0.665200000000     0.278100000000     0          
C16      C      0.246100000000     0.503700000000     0.130300000000     0          
N4       N      0.259600000000     0.584500000000     0.151800000000     0          
N5       N      0.321800000000     0.321500000000     0.514200000000     0          
C17      C      0.369400000000     0.354500000000     0.490700000000     0          
C18      C      0.095300000000     0.714000000000     0.551200000000     0          
C19      C      0.367800000000     0.364300000000     0.251800000000     0          
N6       N      0.317400000000     0.338700000000     0.221500000000     0          
O34      O      0.184600000000     0.304200000000     0.285800000000     0          
N7       N      0.155860000000     0.718100000000     0.223500000000     0          
H6       H      0.112600000000     0.647300000000     0.295800000000     0          
C20      C      0.123740000000     0.700000000000     0.239800000000     0          
H7       H      0.239900000000     0.468500000000     0.131500000000     0          
C21      C      0.251100000000     0.532800000000     0.090600000000     0          
N8       N      0.259200000000     0.581400000000     0.104000000000     0          
N9       N      0.344900000000     0.299300000000     0.541500000000     0          
C22      C      0.373900000000     0.319500000000     0.527700000000     0          
H8       H      0.386300000000     0.374000000000     0.474400000000     0          
C23      C      0.373800000000     0.328400000000     0.216800000000     0          
H9       H      0.384300000000     0.381300000000     0.271000000000     0          
N10      N      0.342500000000     0.313000000000     0.199500000000     0          
C24      C      0.093600000000     0.715400000000     0.215700000000     0          
C25      C      0.249900000000     0.522600000000     0.038300000000     0          
C26      C      0.406100000000     0.304100000000     0.552900000000     0          
C27      C      0.405300000000     0.305400000000     0.198500000000     0          
O41?     O      0.333300000000     0.643900000000     0.427700000000     0          
C36?     C      0.311300000000     0.655500000000     0.459900000000     0          
O42?     O      0.270200000000     0.310800000000     0.377400000000     0          
C37?     C      0.241900000000     0.315100000000     0.404100000000     0          
N15?     N      0.286500000000     0.722600000000     0.442000000000     0          
C44?     C      0.269500000000     0.677900000000     0.438800000000     0          
C45?     C      0.321900000000     0.727600000000     0.459000000000     0          
Zr1      Zr     0.512530000000     0.691310000000     0.701010000000     0          
O1       O      0.485090000000     0.678400000000     0.638400000000     0          
O2       O      0.465930000000     0.741100000000     0.701800000000     0          
O3       O      0.469440000000     0.644000000000     0.730900000000     0          
O4       O      0.531260000000     0.612800000000     0.708300000000     0          
O5       O      0.525400000000     0.764800000000     0.681200000000     0          
O6       O      0.547370000000     0.685500000000     0.637100000000     0          
O7       O      0.566370000000     0.697100000000     0.732300000000     0          
O8       O      0.508300000000     0.727300000000     0.774800000000     0          
Zr2      Zr     0.439740000000     0.718790000000     0.633240000000     0          
Zr3      Zr     0.512320000000     0.672900000000     0.574880000000     0          
Zr4      Zr     0.486640000000     0.818880000000     0.684180000000     0          
H1       H      0.451700000000     0.739000000000     0.731400000000     0          
C1       C      0.438300000000     0.640800000000     0.720400000000     0          
Zr5      Zr     0.559650000000     0.772760000000     0.626670000000     0          
H2       H      0.567300000000     0.661700000000     0.640000000000     0          
O9       O      0.462180000000     0.790200000000     0.624200000000     0          
O10      O      0.421380000000     0.650600000000     0.593700000000     0          
O11      O      0.422440000000     0.663100000000     0.687500000000     0          
O12      O      0.465730000000     0.720700000000     0.561500000000     0          
O13      O      0.401710000000     0.751500000000     0.582700000000     0          
O14      O      0.402180000000     0.764100000000     0.675100000000     0          
O15      O      0.508650000000     0.681300000000     0.496600000000     0          
O16      O      0.531400000000     0.595900000000     0.581600000000     0          
O17      O      0.525080000000     0.750100000000     0.576600000000     0          
O18      O      0.468440000000     0.618800000000     0.558000000000     0          
O19      O      0.566800000000     0.672800000000     0.542800000000     0          
O20      O      0.517490000000     0.834600000000     0.618700000000     0          
O21      O      0.532320000000     0.865800000000     0.710000000000     0          
O22      O      0.473400000000     0.898800000000     0.672800000000     0          
O23      O      0.490810000000     0.810200000000     0.761500000000     0          
O24      O      0.432380000000     0.830300000000     0.707400000000     0          
C2       C      0.417800000000     0.604800000000     0.750500000000     0          
O25      O      0.578490000000     0.839000000000     0.668100000000     0          
O26      O      0.577500000000     0.825900000000     0.570100000000     0          
O27      O      0.597430000000     0.730900000000     0.584400000000     0          
O28      O      0.597180000000     0.743900000000     0.679500000000     0          
Zr6      Zr     0.486900000000     0.800220000000     0.558890000000     0          
C3       C      0.436900000000     0.621200000000     0.565100000000     0          
H3       H      0.451400000000     0.710300000000     0.533400000000     0          
C4       C      0.501200000000     0.721200000000     0.471700000000     0          
C5       C      0.560600000000     0.576800000000     0.587500000000     0          
H4       H      0.525400000000     0.870800000000     0.614100000000     0          
C6       C      0.563300000000     0.864500000000     0.700900000000     0          
C7       C      0.383000000000     0.596100000000     0.748600000000     0          
N1       N      0.431500000000     0.575400000000     0.784000000000     0          
C8       C      0.562000000000     0.845500000000     0.534300000000     0          
O29      O      0.473100000000     0.880700000000     0.551300000000     0          
O30      O      0.492400000000     0.766800000000     0.484700000000     0          
O31      O      0.531020000000     0.839900000000     0.523400000000     0          
O32      O      0.432140000000     0.804300000000     0.534300000000     0          
C9       C      0.415360000000     0.588300000000     0.535500000000     0          
C10      C      0.501900000000     0.713600000000     0.419000000000     0          
O33      O      0.584400000000     0.596400000000     0.614100000000     0          
C11      C      0.585400000000     0.895500000000     0.733500000000     0          
H5       H      0.366700000000     0.611600000000     0.727900000000     0          
C12      C      0.377700000000     0.560200000000     0.783200000000     0          
N2       N      0.407200000000     0.548100000000     0.804600000000     0          
C13      C      0.582900000000     0.879100000000     0.503500000000     0          
C14      C      0.449400000000     0.910700000000     0.558400000000     0          
N3       N      0.431590000000     0.555600000000     0.501700000000     0          
C15      C      0.379610000000     0.584800000000     0.528100000000     0          
C16      C      0.496100000000     0.746300000000     0.380300000000     0          
N4       N      0.509600000000     0.665500000000     0.401800000000     0          
N5       N      0.571800000000     0.928500000000     0.764200000000     0          
C17      C      0.619400000000     0.895500000000     0.740700000000     0          
C18      C      0.345300000000     0.536000000000     0.801200000000     0          
C19      C      0.617800000000     0.885700000000     0.501800000000     0          
N6       N      0.567400000000     0.911300000000     0.471500000000     0          
O34      O      0.434600000000     0.945800000000     0.535800000000     0          
N7       N      0.405860000000     0.531900000000     0.473500000000     0          
H6       H      0.362600000000     0.602700000000     0.545800000000     0          
C20      C      0.373740000000     0.550000000000     0.489800000000     0          
H7       H      0.489900000000     0.781500000000     0.381500000000     0          
C21      C      0.501100000000     0.717200000000     0.340600000000     0          
N8       N      0.509200000000     0.668600000000     0.354000000000     0          
N9       N      0.594900000000     0.950700000000     0.791500000000     0          
C22      C      0.623900000000     0.930500000000     0.777700000000     0          
H8       H      0.636300000000     0.876000000000     0.724400000000     0          
C23      C      0.623800000000     0.921600000000     0.466800000000     0          
H9       H      0.634300000000     0.868700000000     0.521000000000     0          
N10      N      0.592500000000     0.937000000000     0.449500000000     0          
C24      C      0.343600000000     0.534600000000     0.465700000000     0          
C25      C      0.499900000000     0.727400000000     0.288300000000     0          
C26      C      0.656100000000     0.945900000000     0.802900000000     0          
C27      C      0.655300000000     0.944600000000     0.448500000000     0          
O41?     O      0.583300000000     0.606100000000     0.677700000000     0          
C36?     C      0.561300000000     0.594500000000     0.709900000000     0          
O42?     O      0.520200000000     0.939200000000     0.627400000000     0          
C37?     C      0.491900000000     0.934900000000     0.654100000000     0          
N15?     N      0.536500000000     0.527400000000     0.692000000000     0          
C44?     C      0.519500000000     0.572100000000     0.688800000000     0          
C45?     C      0.571900000000     0.522400000000     0.709000000000     0          
Zr1      Zr     0.487470000000     0.308690000000     0.701010000000     0          
O1       O      0.514910000000     0.321600000000     0.638400000000     0          
O2       O      0.534070000000     0.258900000000     0.701800000000     0          
O3       O      0.530560000000     0.356000000000     0.730900000000     0          
O4       O      0.468740000000     0.387200000000     0.708300000000     0          
O5       O      0.474600000000     0.235200000000     0.681200000000     0          
O6       O      0.452630000000     0.314500000000     0.637100000000     0          
O7       O      0.433630000000     0.302900000000     0.732300000000     0          
O8       O      0.491700000000     0.272700000000     0.774800000000     0          
Zr2      Zr     0.560260000000     0.281210000000     0.633240000000     0          
Zr3      Zr     0.487680000000     0.327100000000     0.574880000000     0          
Zr4      Zr     0.513360000000     0.181120000000     0.684180000000     0          
H1       H      0.548300000000     0.261000000000     0.731400000000     0          
C1       C      0.561700000000     0.359200000000     0.720400000000     0          
Zr5      Zr     0.440350000000     0.227240000000     0.626670000000     0          
H2       H      0.432700000000     0.338300000000     0.640000000000     0          
O9       O      0.537820000000     0.209800000000     0.624200000000     0          
O10      O      0.578620000000     0.349400000000     0.593700000000     0          
O11      O      0.577560000000     0.336900000000     0.687500000000     0          
O12      O      0.534270000000     0.279300000000     0.561500000000     0          
O13      O      0.598290000000     0.248500000000     0.582700000000     0          
O14      O      0.597820000000     0.235900000000     0.675100000000     0          
O15      O      0.491350000000     0.318700000000     0.496600000000     0          
O16      O      0.468600000000     0.404100000000     0.581600000000     0          
O17      O      0.474920000000     0.249900000000     0.576600000000     0          
O18      O      0.531560000000     0.381200000000     0.558000000000     0          
O19      O      0.433200000000     0.327200000000     0.542800000000     0          
O20      O      0.482510000000     0.165400000000     0.618700000000     0          
O21      O      0.467680000000     0.134200000000     0.710000000000     0          
O22      O      0.526600000000     0.101200000000     0.672800000000     0          
O23      O      0.509190000000     0.189800000000     0.761500000000     0          
O24      O      0.567620000000     0.169700000000     0.707400000000     0          
C2       C      0.582200000000     0.395200000000     0.750500000000     0          
O25      O      0.421510000000     0.161000000000     0.668100000000     0          
O26      O      0.422500000000     0.174100000000     0.570100000000     0          
O27      O      0.402570000000     0.269100000000     0.584400000000     0          
O28      O      0.402820000000     0.256100000000     0.679500000000     0          
Zr6      Zr     0.513100000000     0.199780000000     0.558890000000     0          
C3       C      0.563100000000     0.378800000000     0.565100000000     0          
H3       H      0.548600000000     0.289700000000     0.533400000000     0          
C4       C      0.498800000000     0.278800000000     0.471700000000     0          
C5       C      0.439400000000     0.423200000000     0.587500000000     0          
H4       H      0.474600000000     0.129200000000     0.614100000000     0          
C6       C      0.436700000000     0.135500000000     0.700900000000     0          
C7       C      0.617000000000     0.403900000000     0.748600000000     0          
N1       N      0.568500000000     0.424600000000     0.784000000000     0          
C8       C      0.438000000000     0.154500000000     0.534300000000     0          
O29      O      0.526900000000     0.119300000000     0.551300000000     0          
O30      O      0.507600000000     0.233200000000     0.484700000000     0          
O31      O      0.468980000000     0.160100000000     0.523400000000     0          
O32      O      0.567860000000     0.195700000000     0.534300000000     0          
C9       C      0.584640000000     0.411700000000     0.535500000000     0          
C10      C      0.498100000000     0.286400000000     0.419000000000     0          
O33      O      0.415600000000     0.403600000000     0.614100000000     0          
C11      C      0.414600000000     0.104500000000     0.733500000000     0          
H5       H      0.633300000000     0.388400000000     0.727900000000     0          
C12      C      0.622300000000     0.439800000000     0.783200000000     0          
N2       N      0.592800000000     0.451900000000     0.804600000000     0          
C13      C      0.417100000000     0.120900000000     0.503500000000     0          
C14      C      0.550600000000     0.089300000000     0.558400000000     0          
N3       N      0.568410000000     0.444400000000     0.501700000000     0          
C15      C      0.620390000000     0.415200000000     0.528100000000     0          
C16      C      0.503900000000     0.253700000000     0.380300000000     0          
N4       N      0.490400000000     0.334500000000     0.401800000000     0          
N5       N      0.428200000000     0.071500000000     0.764200000000     0          
C17      C      0.380600000000     0.104500000000     0.740700000000     0          
C18      C      0.654700000000     0.464000000000     0.801200000000     0          
C19      C      0.382200000000     0.114300000000     0.501800000000     0          
N6       N      0.432600000000     0.088700000000     0.471500000000     0          
O34      O      0.565400000000     0.054200000000     0.535800000000     0          
N7       N      0.594140000000     0.468100000000     0.473500000000     0          
H6       H      0.637400000000     0.397300000000     0.545800000000     0          
C20      C      0.626260000000     0.450000000000     0.489800000000     0          
H7       H      0.510100000000     0.218500000000     0.381500000000     0          
C21      C      0.498900000000     0.282800000000     0.340600000000     0          
N8       N      0.490800000000     0.331400000000     0.354000000000     0          
N9       N      0.405100000000     0.049300000000     0.791500000000     0          
C22      C      0.376100000000     0.069500000000     0.777700000000     0          
H8       H      0.363700000000     0.124000000000     0.724400000000     0          
C23      C      0.376200000000     0.078400000000     0.466800000000     0          
H9       H      0.365700000000     0.131300000000     0.521000000000     0          
N10      N      0.407500000000     0.063000000000     0.449500000000     0          
C24      C      0.656400000000     0.465400000000     0.465700000000     0          
C25      C      0.500100000000     0.272600000000     0.288300000000     0          
C26      C      0.343900000000     0.054100000000     0.802900000000     0          
C27      C      0.344700000000     0.055400000000     0.448500000000     0          
O41?     O      0.416700000000     0.393900000000     0.677700000000     0          
C36?     C      0.438700000000     0.405500000000     0.709900000000     0          
O42?     O      0.479800000000     0.060800000000     0.627400000000     0          
C37?     C      0.508100000000     0.065100000000     0.654100000000     0          
N15?     N      0.463500000000     0.472600000000     0.692000000000     0          
C44?     C      0.480500000000     0.427900000000     0.688800000000     0          
C45?     C      0.428100000000     0.477600000000     0.709000000000     0          
Zr1      Zr     0.737470000000     0.941310000000     0.951010000000     0          
O1       O      0.764910000000     0.928400000000     0.888400000000     0          
O2       O      0.784070000000     0.991100000000     0.951800000000     0          
O3       O      0.780560000000     0.894000000000     0.980900000000     0          
O4       O      0.718740000000     0.862800000000     0.958300000000     0          
O5       O      0.724600000000     0.014800000000     0.931200000000     0          
O6       O      0.702630000000     0.935500000000     0.887100000000     0          
O7       O      0.683630000000     0.947100000000     0.982300000000     0          
O8       O      0.741700000000     0.977300000000     0.024800000000     0          
Zr2      Zr     0.810260000000     0.968790000000     0.883240000000     0          
Zr3      Zr     0.737680000000     0.922900000000     0.824880000000     0          
Zr4      Zr     0.763360000000     0.068880000000     0.934180000000     0          
H1       H      0.798300000000     0.989000000000     0.981400000000     0          
C1       C      0.811700000000     0.890800000000     0.970400000000     0          
Zr5      Zr     0.690350000000     0.022760000000     0.876670000000     0          
H2       H      0.682700000000     0.911700000000     0.890000000000     0          
O9       O      0.787820000000     0.040200000000     0.874200000000     0          
O10      O      0.828620000000     0.900600000000     0.843700000000     0          
O11      O      0.827560000000     0.913100000000     0.937500000000     0          
O12      O      0.784270000000     0.970700000000     0.811500000000     0          
O13      O      0.848290000000     0.001500000000     0.832700000000     0          
O14      O      0.847820000000     0.014100000000     0.925100000000     0          
O15      O      0.741350000000     0.931300000000     0.746600000000     0          
O16      O      0.718600000000     0.845900000000     0.831600000000     0          
O17      O      0.724920000000     0.000100000000     0.826600000000     0          
O18      O      0.781560000000     0.868800000000     0.808000000000     0          
O19      O      0.683200000000     0.922800000000     0.792800000000     0          
O20      O      0.732510000000     0.084600000000     0.868700000000     0          
O21      O      0.717680000000     0.115800000000     0.960000000000     0          
O22      O      0.776600000000     0.148800000000     0.922800000000     0          
O23      O      0.759190000000     0.060200000000     0.011500000000     0          
O24      O      0.817620000000     0.080300000000     0.957400000000     0          
C2       C      0.832200000000     0.854800000000     0.000500000000     0          
O25      O      0.671510000000     0.089000000000     0.918100000000     0          
O26      O      0.672500000000     0.075900000000     0.820100000000     0          
O27      O      0.652570000000     0.980900000000     0.834400000000     0          
O28      O      0.652820000000     0.993900000000     0.929500000000     0          
Zr6      Zr     0.763100000000     0.050220000000     0.808890000000     0          
C3       C      0.813100000000     0.871200000000     0.815100000000     0          
H3       H      0.798600000000     0.960300000000     0.783400000000     0          
C4       C      0.748800000000     0.971200000000     0.721700000000     0          
C5       C      0.689400000000     0.826800000000     0.837500000000     0          
H4       H      0.724600000000     0.120800000000     0.864100000000     0          
C6       C      0.686700000000     0.114500000000     0.950900000000     0          
C7       C      0.867000000000     0.846100000000     0.998600000000     0          
N1       N      0.818500000000     0.825400000000     0.034000000000     0          
C8       C      0.688000000000     0.095500000000     0.784300000000     0          
O29      O      0.776900000000     0.130700000000     0.801300000000     0          
O30      O      0.757600000000     0.016800000000     0.734700000000     0          
O31      O      0.718980000000     0.089900000000     0.773400000000     0          
O32      O      0.817860000000     0.054300000000     0.784300000000     0          
C9       C      0.834640000000     0.838300000000     0.785500000000     0          
C10      C      0.748100000000     0.963600000000     0.669000000000     0          
O33      O      0.665600000000     0.846400000000     0.864100000000     0          
C11      C      0.664600000000     0.145500000000     0.983500000000     0          
H5       H      0.883300000000     0.861600000000     0.977900000000     0          
C12      C      0.872300000000     0.810200000000     0.033200000000     0          
N2       N      0.842800000000     0.798100000000     0.054600000000     0          
C13      C      0.667100000000     0.129100000000     0.753500000000     0          
C14      C      0.800600000000     0.160700000000     0.808400000000     0          
N3       N      0.818410000000     0.805600000000     0.751700000000     0          
C15      C      0.870390000000     0.834800000000     0.778100000000     0          
C16      C      0.753900000000     0.996300000000     0.630300000000     0          
N4       N      0.740400000000     0.915500000000     0.651800000000     0          
N5       N      0.678200000000     0.178500000000     0.014200000000     0          
C17      C      0.630600000000     0.145500000000     0.990700000000     0          
C18      C      0.904700000000     0.786000000000     0.051200000000     0          
C19      C      0.632200000000     0.135700000000     0.751800000000     0          
N6       N      0.682600000000     0.161300000000     0.721500000000     0          
O34      O      0.815400000000     0.195800000000     0.785800000000     0          
N7       N      0.844140000000     0.781900000000     0.723500000000     0          
H6       H      0.887400000000     0.852700000000     0.795800000000     0          
C20      C      0.876260000000     0.800000000000     0.739800000000     0          
H7       H      0.760100000000     0.031500000000     0.631500000000     0          
C21      C      0.748900000000     0.967200000000     0.590600000000     0          
N8       N      0.740800000000     0.918600000000     0.604000000000     0          
N9       N      0.655100000000     0.200700000000     0.041500000000     0          
C22      C      0.626100000000     0.180500000000     0.027700000000     0          
H8       H      0.613700000000     0.126000000000     0.974400000000     0          
C23      C      0.626200000000     0.171600000000     0.716800000000     0          
H9       H      0.615700000000     0.118700000000     0.771000000000     0          
N10      N      0.657500000000     0.187000000000     0.699500000000     0          
C24      C      0.906400000000     0.784600000000     0.715700000000     0          
C25      C      0.750100000000     0.977400000000     0.538300000000     0          
C26      C      0.593900000000     0.195900000000     0.052900000000     0          
C27      C      0.594700000000     0.194600000000     0.698500000000     0          
O41?     O      0.666700000000     0.856100000000     0.927700000000     0          
C36?     C      0.688700000000     0.844500000000     0.959900000000     0          
O42?     O      0.729800000000     0.189200000000     0.877400000000     0          
C37?     C      0.758100000000     0.184900000000     0.904100000000     0          
N15?     N      0.713500000000     0.777400000000     0.942000000000     0          
C44?     C      0.730500000000     0.822100000000     0.938800000000     0          
C45?     C      0.678100000000     0.772400000000     0.959000000000     0          
Zr1      Zr     0.262530000000     0.058690000000     0.951010000000     0          
O1       O      0.235090000000     0.071600000000     0.888400000000     0          
O2       O      0.215930000000     0.008900000000     0.951800000000     0          
O3       O      0.219440000000     0.106000000000     0.980900000000     0          
O4       O      0.281260000000     0.137200000000     0.958300000000     0          
O5       O      0.275400000000     0.985200000000     0.931200000000     0          
O6       O      0.297370000000     0.064500000000     0.887100000000     0          
O7       O      0.316370000000     0.052900000000     0.982300000000     0          
O8       O      0.258300000000     0.022700000000     0.024800000000     0          
Zr2      Zr     0.189740000000     0.031210000000     0.883240000000     0          
Zr3      Zr     0.262320000000     0.077100000000     0.824880000000     0          
Zr4      Zr     0.236640000000     0.931120000000     0.934180000000     0          
H1       H      0.201700000000     0.011000000000     0.981400000000     0          
C1       C      0.188300000000     0.109200000000     0.970400000000     0          
Zr5      Zr     0.309650000000     0.977240000000     0.876670000000     0          
H2       H      0.317300000000     0.088300000000     0.890000000000     0          
O9       O      0.212180000000     0.959800000000     0.874200000000     0          
O10      O      0.171380000000     0.099400000000     0.843700000000     0          
O11      O      0.172440000000     0.086900000000     0.937500000000     0          
O12      O      0.215730000000     0.029300000000     0.811500000000     0          
O13      O      0.151710000000     0.998500000000     0.832700000000     0          
O14      O      0.152180000000     0.985900000000     0.925100000000     0          
O15      O      0.258650000000     0.068700000000     0.746600000000     0          
O16      O      0.281400000000     0.154100000000     0.831600000000     0          
O17      O      0.275080000000     0.999900000000     0.826600000000     0          
O18      O      0.218440000000     0.131200000000     0.808000000000     0          
O19      O      0.316800000000     0.077200000000     0.792800000000     0          
O20      O      0.267490000000     0.915400000000     0.868700000000     0          
O21      O      0.282320000000     0.884200000000     0.960000000000     0          
O22      O      0.223400000000     0.851200000000     0.922800000000     0          
O23      O      0.240810000000     0.939800000000     0.011500000000     0          
O24      O      0.182380000000     0.919700000000     0.957400000000     0          
C2       C      0.167800000000     0.145200000000     0.000500000000     0          
O25      O      0.328490000000     0.911000000000     0.918100000000     0          
O26      O      0.327500000000     0.924100000000     0.820100000000     0          
O27      O      0.347430000000     0.019100000000     0.834400000000     0          
O28      O      0.347180000000     0.006100000000     0.929500000000     0          
Zr6      Zr     0.236900000000     0.949780000000     0.808890000000     0          
C3       C      0.186900000000     0.128800000000     0.815100000000     0          
H3       H      0.201400000000     0.039700000000     0.783400000000     0          
C4       C      0.251200000000     0.028800000000     0.721700000000     0          
C5       C      0.310600000000     0.173200000000     0.837500000000     0          
H4       H      0.275400000000     0.879200000000     0.864100000000     0          
C6       C      0.313300000000     0.885500000000     0.950900000000     0          
C7       C      0.133000000000     0.153900000000     0.998600000000     0          
N1       N      0.181500000000     0.174600000000     0.034000000000     0          
C8       C      0.312000000000     0.904500000000     0.784300000000     0          
O29      O      0.223100000000     0.869300000000     0.801300000000     0          
O30      O      0.242400000000     0.983200000000     0.734700000000     0          
O31      O      0.281020000000     0.910100000000     0.773400000000     0          
O32      O      0.182140000000     0.945700000000     0.784300000000     0          
C9       C      0.165360000000     0.161700000000     0.785500000000     0          
C10      C      0.251900000000     0.036400000000     0.669000000000     0          
O33      O      0.334400000000     0.153600000000     0.864100000000     0          
C11      C      0.335400000000     0.854500000000     0.983500000000     0          
H5       H      0.116700000000     0.138400000000     0.977900000000     0          
C12      C      0.127700000000     0.189800000000     0.033200000000     0          
N2       N      0.157200000000     0.201900000000     0.054600000000     0          
C13      C      0.332900000000     0.870900000000     0.753500000000     0          
C14      C      0.199400000000     0.839300000000     0.808400000000     0          
N3       N      0.181590000000     0.194400000000     0.751700000000     0          
C15      C      0.129610000000     0.165200000000     0.778100000000     0          
C16      C      0.246100000000     0.003700000000     0.630300000000     0          
N4       N      0.259600000000     0.084500000000     0.651800000000     0          
N5       N      0.321800000000     0.821500000000     0.014200000000     0          
C17      C      0.369400000000     0.854500000000     0.990700000000     0          
C18      C      0.095300000000     0.214000000000     0.051200000000     0          
C19      C      0.367800000000     0.864300000000     0.751800000000     0          
N6       N      0.317400000000     0.838700000000     0.721500000000     0          
O34      O      0.184600000000     0.804200000000     0.785800000000     0          
N7       N      0.155860000000     0.218100000000     0.723500000000     0          
H6       H      0.112600000000     0.147300000000     0.795800000000     0          
C20      C      0.123740000000     0.200000000000     0.739800000000     0          
H7       H      0.239900000000     0.968500000000     0.631500000000     0          
C21      C      0.251100000000     0.032800000000     0.590600000000     0          
N8       N      0.259200000000     0.081400000000     0.604000000000     0          
N9       N      0.344900000000     0.799300000000     0.041500000000     0          
C22      C      0.373900000000     0.819500000000     0.027700000000     0          
H8       H      0.386300000000     0.874000000000     0.974400000000     0          
C23      C      0.373800000000     0.828400000000     0.716800000000     0          
H9       H      0.384300000000     0.881300000000     0.771000000000     0          
N10      N      0.342500000000     0.813000000000     0.699500000000     0          
C24      C      0.093600000000     0.215400000000     0.715700000000     0          
C25      C      0.249900000000     0.022600000000     0.538300000000     0          
C26      C      0.406100000000     0.804100000000     0.052900000000     0          
C27      C      0.405300000000     0.805400000000     0.698500000000     0          
O41?     O      0.333300000000     0.143900000000     0.927700000000     0          
C36?     C      0.311300000000     0.155500000000     0.959900000000     0          
O42?     O      0.270200000000     0.810800000000     0.877400000000     0          
C37?     C      0.241900000000     0.815100000000     0.904100000000     0          
N15?     N      0.286500000000     0.222600000000     0.942000000000     0          
C44?     C      0.269500000000     0.177900000000     0.938800000000     0          
C45?     C      0.321900000000     0.227600000000     0.959000000000     0          


