data_BOHXAZ

_audit_creation_method RASPA-1.0
_audit_creation_date 2020-11-2
_audit_author_name 'Rocio Bueno-Perez'

_cell_length_a    26.8514
_cell_length_b    26.8514
_cell_length_c    26.8514
_cell_angle_alpha 90
_cell_angle_beta  90
_cell_angle_gamma 90
_cell_volume      19359.8

_symmetry_cell_setting          triclinic
_symmetry_space_group_name_Hall 'P 1'
_symmetry_space_group_name_H-M  'P 1'
_symmetry_Int_Tables_number     1

_symmetry_equiv_pos_as_xyz 'x,y,z'

loop_
_atom_site_label
_atom_site_type_symbol
_atom_site_fract_x
_atom_site_fract_y
_atom_site_fract_z
_atom_site_charge
O1       O      0.280000000000     0.968000000000     0.100000000000     0          
O2       O      0.220000000000     0.032000000000     0.600000000000     0          
O3       O      0.220000000000     0.968000000000     0.400000000000     0          
O4       O      0.280000000000     0.032000000000     0.900000000000     0          
O5       O      0.100000000000     0.280000000000     0.968000000000     0          
O6       O      0.600000000000     0.780000000000     0.968000000000     0          
O7       O      0.100000000000     0.720000000000     0.032000000000     0          
O8       O      0.600000000000     0.720000000000     0.532000000000     0          
O9       O      0.900000000000     0.220000000000     0.468000000000     0          
O10      O      0.400000000000     0.220000000000     0.968000000000     0          
O11      O      0.468000000000     0.400000000000     0.720000000000     0          
O12      O      0.532000000000     0.400000000000     0.280000000000     0          
O13      O      0.720000000000     0.032000000000     0.900000000000     0          
O14      O      0.220000000000     0.532000000000     0.900000000000     0          
O15      O      0.280000000000     0.468000000000     0.400000000000     0          
O16      O      0.780000000000     0.968000000000     0.400000000000     0          
O17      O      0.280000000000     0.532000000000     0.600000000000     0          
O18      O      0.780000000000     0.032000000000     0.600000000000     0          
O19      O      0.720000000000     0.968000000000     0.100000000000     0          
O20      O      0.220000000000     0.468000000000     0.100000000000     0          
O21      O      0.900000000000     0.280000000000     0.968000000000     0          
O22      O      0.900000000000     0.780000000000     0.468000000000     0          
O23      O      0.400000000000     0.780000000000     0.968000000000     0          
O24      O      0.600000000000     0.220000000000     0.968000000000     0          
O25      O      0.032000000000     0.900000000000     0.720000000000     0          
O26      O      0.032000000000     0.400000000000     0.220000000000     0          
O27      O      0.968000000000     0.900000000000     0.280000000000     0          
O28      O      0.968000000000     0.400000000000     0.780000000000     0          
O29      O      0.032000000000     0.100000000000     0.280000000000     0          
O30      O      0.032000000000     0.600000000000     0.780000000000     0          
O31      O      0.968000000000     0.100000000000     0.720000000000     0          
O32      O      0.968000000000     0.600000000000     0.220000000000     0          
Zr33     Zr     0.500000000000     0.000000000000     0.092000000000     0          
Zr34     Zr     0.500000000000     0.500000000000     0.592000000000     0          
Zr35     Zr     0.000000000000     0.000000000000     0.592000000000     0          
Zr36     Zr     0.000000000000     0.500000000000     0.092000000000     0          
Zr37     Zr     0.500000000000     0.000000000000     0.908000000000     0          
Zr38     Zr     0.500000000000     0.500000000000     0.408000000000     0          
Zr39     Zr     0.000000000000     0.000000000000     0.408000000000     0          
Zr40     Zr     0.000000000000     0.500000000000     0.908000000000     0          
Zr41     Zr     0.092000000000     0.500000000000     0.000000000000     0          
Zr42     Zr     0.092000000000     0.000000000000     0.500000000000     0          
Zr43     Zr     0.592000000000     0.500000000000     0.500000000000     0          
Zr44     Zr     0.592000000000     0.000000000000     0.000000000000     0          
Zr45     Zr     0.908000000000     0.500000000000     0.000000000000     0          
Zr46     Zr     0.908000000000     0.000000000000     0.500000000000     0          
Zr47     Zr     0.408000000000     0.500000000000     0.500000000000     0          
Zr48     Zr     0.408000000000     0.000000000000     0.000000000000     0          
Zr49     Zr     0.000000000000     0.092000000000     0.500000000000     0          
Zr50     Zr     0.000000000000     0.592000000000     0.000000000000     0          
Zr51     Zr     0.500000000000     0.092000000000     0.000000000000     0          
Zr52     Zr     0.500000000000     0.592000000000     0.500000000000     0          
Zr53     Zr     0.000000000000     0.908000000000     0.500000000000     0          
Zr54     Zr     0.000000000000     0.408000000000     0.000000000000     0          
Zr55     Zr     0.500000000000     0.908000000000     0.000000000000     0          
Zr56     Zr     0.500000000000     0.408000000000     0.500000000000     0          
O57      O      0.460500000000     0.039500000000     0.039500000000     0          
O58      O      0.447600000000     0.052400000000     0.052400000000     0          
O59      O      0.460500000000     0.539500000000     0.539500000000     0          
O60      O      0.447600000000     0.552400000000     0.552400000000     0          
O61      O      0.539500000000     0.960500000000     0.039500000000     0          
O62      O      0.552400000000     0.947600000000     0.052400000000     0          
O63      O      0.539500000000     0.460500000000     0.539500000000     0          
O64      O      0.552400000000     0.447600000000     0.552400000000     0          
O65      O      0.039500000000     0.460500000000     0.039500000000     0          
O66      O      0.052400000000     0.447600000000     0.052400000000     0          
O67      O      0.539500000000     0.039500000000     0.960500000000     0          
O68      O      0.552400000000     0.052400000000     0.947600000000     0          
O69      O      0.539500000000     0.539500000000     0.460500000000     0          
O70      O      0.552400000000     0.552400000000     0.447600000000     0          
O71      O      0.039500000000     0.039500000000     0.460500000000     0          
O72      O      0.052400000000     0.052400000000     0.447600000000     0          
O73      O      0.460500000000     0.960500000000     0.960500000000     0          
O74      O      0.447600000000     0.947600000000     0.947600000000     0          
O75      O      0.460500000000     0.460500000000     0.460500000000     0          
O76      O      0.447600000000     0.447600000000     0.447600000000     0          
O77      O      0.039500000000     0.539500000000     0.960500000000     0          
O78      O      0.052400000000     0.552400000000     0.947600000000     0          
O79      O      0.960500000000     0.539500000000     0.039500000000     0          
O80      O      0.947600000000     0.552400000000     0.052400000000     0          
O81      O      0.960500000000     0.460500000000     0.960500000000     0          
O82      O      0.947600000000     0.447600000000     0.947600000000     0          
O83      O      0.960500000000     0.039500000000     0.539500000000     0          
O84      O      0.947600000000     0.052400000000     0.552400000000     0          
O85      O      0.039500000000     0.960500000000     0.539500000000     0          
O86      O      0.052400000000     0.947600000000     0.552400000000     0          
O87      O      0.960500000000     0.960500000000     0.460500000000     0          
O88      O      0.947600000000     0.947600000000     0.447600000000     0          
O89      O      0.539500000000     0.960500000000     0.960500000000     0          
O90      O      0.552400000000     0.947600000000     0.947600000000     0          
O91      O      0.539500000000     0.460500000000     0.460500000000     0          
O92      O      0.552400000000     0.447600000000     0.447600000000     0          
O93      O      0.039500000000     0.960500000000     0.460500000000     0          
O94      O      0.052400000000     0.947600000000     0.447600000000     0          
O95      O      0.039500000000     0.460500000000     0.960500000000     0          
O96      O      0.052400000000     0.447600000000     0.947600000000     0          
O97      O      0.460500000000     0.039500000000     0.960500000000     0          
O98      O      0.447600000000     0.052400000000     0.947600000000     0          
O99      O      0.460500000000     0.539500000000     0.460500000000     0          
O100     O      0.447600000000     0.552400000000     0.447600000000     0          
O101     O      0.460500000000     0.960500000000     0.039500000000     0          
O102     O      0.447600000000     0.947600000000     0.052400000000     0          
O103     O      0.460500000000     0.460500000000     0.539500000000     0          
O104     O      0.447600000000     0.447600000000     0.552400000000     0          
O105     O      0.539500000000     0.039500000000     0.039500000000     0          
O106     O      0.552400000000     0.052400000000     0.052400000000     0          
O107     O      0.539500000000     0.539500000000     0.539500000000     0          
O108     O      0.552400000000     0.552400000000     0.552400000000     0          
O109     O      0.960500000000     0.539500000000     0.960500000000     0          
O110     O      0.947600000000     0.552400000000     0.947600000000     0          
O111     O      0.960500000000     0.039500000000     0.460500000000     0          
O112     O      0.947600000000     0.052400000000     0.447600000000     0          
O113     O      0.960500000000     0.460500000000     0.039500000000     0          
O114     O      0.947600000000     0.447600000000     0.052400000000     0          
O115     O      0.039500000000     0.539500000000     0.039500000000     0          
O116     O      0.052400000000     0.552400000000     0.052400000000     0          
O117     O      0.960500000000     0.960500000000     0.539500000000     0          
O118     O      0.947600000000     0.947600000000     0.552400000000     0          
O119     O      0.039500000000     0.039500000000     0.539500000000     0          
O120     O      0.052400000000     0.052400000000     0.552400000000     0          
O121     O      0.366400000000     0.000000000000     0.071300000000     0          
O122     O      0.428400000000     0.000000000000     0.133600000000     0          
C123     C      0.382200000000     0.000000000000     0.117500000000     0          
C124     C      0.343100000000     0.000000000000     0.156900000000     0          
C125     C      0.293000000000     0.000000000000     0.143200000000     0          
C126     C      0.356500000000     0.000000000000     0.206900000000     0          
C127     C      0.317700000000     0.000000000000     0.242200000000     0          
H128     H      0.326200000000     0.000000000000     0.276500000000     0          
C129     C      0.270200000000     0.000000000000     0.229900000000     0          
C130     C      0.257600000000     0.000000000000     0.182300000000     0          
H131     H      0.223300000000     0.000000000000     0.174000000000     0          
O132     O      0.366400000000     0.500000000000     0.571300000000     0          
O133     O      0.428400000000     0.500000000000     0.633600000000     0          
C134     C      0.382200000000     0.500000000000     0.617500000000     0          
C135     C      0.343100000000     0.500000000000     0.656900000000     0          
C136     C      0.293000000000     0.500000000000     0.643200000000     0          
C137     C      0.356500000000     0.500000000000     0.706900000000     0          
C138     C      0.317700000000     0.500000000000     0.742200000000     0          
H139     H      0.326200000000     0.500000000000     0.776500000000     0          
C140     C      0.270200000000     0.500000000000     0.729900000000     0          
C141     C      0.257600000000     0.500000000000     0.682300000000     0          
H142     H      0.223300000000     0.500000000000     0.674000000000     0          
O143     O      0.866400000000     0.000000000000     0.571300000000     0          
O144     O      0.928400000000     0.000000000000     0.633600000000     0          
C145     C      0.882200000000     0.000000000000     0.617500000000     0          
C146     C      0.843100000000     0.000000000000     0.656900000000     0          
C147     C      0.793000000000     0.000000000000     0.643200000000     0          
C148     C      0.856500000000     0.000000000000     0.706900000000     0          
C149     C      0.817700000000     0.000000000000     0.742200000000     0          
H150     H      0.826200000000     0.000000000000     0.776500000000     0          
C151     C      0.770200000000     0.000000000000     0.729900000000     0          
C152     C      0.757600000000     0.000000000000     0.682300000000     0          
H153     H      0.723300000000     0.000000000000     0.674000000000     0          
O154     O      0.866400000000     0.500000000000     0.071300000000     0          
O155     O      0.928400000000     0.500000000000     0.133600000000     0          
C156     C      0.882200000000     0.500000000000     0.117500000000     0          
C157     C      0.843100000000     0.500000000000     0.156900000000     0          
C158     C      0.793000000000     0.500000000000     0.143200000000     0          
C159     C      0.856500000000     0.500000000000     0.206900000000     0          
C160     C      0.817700000000     0.500000000000     0.242200000000     0          
H161     H      0.826200000000     0.500000000000     0.276500000000     0          
C162     C      0.770200000000     0.500000000000     0.229900000000     0          
C163     C      0.757600000000     0.500000000000     0.182300000000     0          
H164     H      0.723300000000     0.500000000000     0.174000000000     0          
O165     O      0.774900000000     0.500000000000     0.096100000000     0          
O166     O      0.633600000000     0.000000000000     0.071300000000     0          
O167     O      0.571600000000     0.000000000000     0.133600000000     0          
C168     C      0.617800000000     0.000000000000     0.117500000000     0          
C169     C      0.656900000000     0.000000000000     0.156900000000     0          
C170     C      0.707000000000     0.000000000000     0.143200000000     0          
C171     C      0.643500000000     0.000000000000     0.206900000000     0          
C172     C      0.682300000000     0.000000000000     0.242200000000     0          
H173     H      0.673800000000     0.000000000000     0.276500000000     0          
C174     C      0.729800000000     0.000000000000     0.229900000000     0          
C175     C      0.742400000000     0.000000000000     0.182300000000     0          
H176     H      0.776700000000     0.000000000000     0.174000000000     0          
O177     O      0.633600000000     0.500000000000     0.571300000000     0          
O178     O      0.571600000000     0.500000000000     0.633600000000     0          
C179     C      0.617800000000     0.500000000000     0.617500000000     0          
C180     C      0.656900000000     0.500000000000     0.656900000000     0          
C181     C      0.707000000000     0.500000000000     0.643200000000     0          
C182     C      0.643500000000     0.500000000000     0.706900000000     0          
C183     C      0.682300000000     0.500000000000     0.742200000000     0          
H184     H      0.673800000000     0.500000000000     0.776500000000     0          
C185     C      0.729800000000     0.500000000000     0.729900000000     0          
C186     C      0.742400000000     0.500000000000     0.682300000000     0          
H187     H      0.776700000000     0.500000000000     0.674000000000     0          
O188     O      0.725100000000     0.500000000000     0.596100000000     0          
O189     O      0.133600000000     0.000000000000     0.571300000000     0          
O190     O      0.071600000000     0.000000000000     0.633600000000     0          
C191     C      0.117800000000     0.000000000000     0.617500000000     0          
C192     C      0.156900000000     0.000000000000     0.656900000000     0          
C193     C      0.207000000000     0.000000000000     0.643200000000     0          
C194     C      0.143500000000     0.000000000000     0.706900000000     0          
C195     C      0.182300000000     0.000000000000     0.742200000000     0          
H196     H      0.173800000000     0.000000000000     0.776500000000     0          
C197     C      0.229800000000     0.000000000000     0.729900000000     0          
C198     C      0.242400000000     0.000000000000     0.682300000000     0          
H199     H      0.276700000000     0.000000000000     0.674000000000     0          
O200     O      0.133600000000     0.500000000000     0.071300000000     0          
O201     O      0.071600000000     0.500000000000     0.133600000000     0          
C202     C      0.117800000000     0.500000000000     0.117500000000     0          
C203     C      0.156900000000     0.500000000000     0.156900000000     0          
C204     C      0.207000000000     0.500000000000     0.143200000000     0          
C205     C      0.143500000000     0.500000000000     0.206900000000     0          
C206     C      0.182300000000     0.500000000000     0.242200000000     0          
H207     H      0.173800000000     0.500000000000     0.276500000000     0          
C208     C      0.229800000000     0.500000000000     0.229900000000     0          
C209     C      0.242400000000     0.500000000000     0.182300000000     0          
H210     H      0.276700000000     0.500000000000     0.174000000000     0          
O211     O      0.633600000000     0.000000000000     0.928700000000     0          
O212     O      0.571600000000     0.000000000000     0.866400000000     0          
C213     C      0.617800000000     0.000000000000     0.882500000000     0          
C214     C      0.656900000000     0.000000000000     0.843100000000     0          
C215     C      0.707000000000     0.000000000000     0.856800000000     0          
C216     C      0.643500000000     0.000000000000     0.793100000000     0          
C217     C      0.682300000000     0.000000000000     0.757800000000     0          
H218     H      0.673800000000     0.000000000000     0.723500000000     0          
C219     C      0.729800000000     0.000000000000     0.770100000000     0          
C220     C      0.742400000000     0.000000000000     0.817700000000     0          
H221     H      0.776700000000     0.000000000000     0.826000000000     0          
O222     O      0.633600000000     0.500000000000     0.428700000000     0          
O223     O      0.571600000000     0.500000000000     0.366400000000     0          
C224     C      0.617800000000     0.500000000000     0.382500000000     0          
C225     C      0.656900000000     0.500000000000     0.343100000000     0          
C226     C      0.707000000000     0.500000000000     0.356800000000     0          
C227     C      0.643500000000     0.500000000000     0.293100000000     0          
C228     C      0.682300000000     0.500000000000     0.257800000000     0          
H229     H      0.673800000000     0.500000000000     0.223500000000     0          
C230     C      0.729800000000     0.500000000000     0.270100000000     0          
C231     C      0.742400000000     0.500000000000     0.317700000000     0          
H232     H      0.776700000000     0.500000000000     0.326000000000     0          
O233     O      0.725100000000     0.500000000000     0.403900000000     0          
O234     O      0.133600000000     0.000000000000     0.428700000000     0          
O235     O      0.071600000000     0.000000000000     0.366400000000     0          
C236     C      0.117800000000     0.000000000000     0.382500000000     0          
C237     C      0.156900000000     0.000000000000     0.343100000000     0          
C238     C      0.207000000000     0.000000000000     0.356800000000     0          
C239     C      0.143500000000     0.000000000000     0.293100000000     0          
C240     C      0.182300000000     0.000000000000     0.257800000000     0          
H241     H      0.173800000000     0.000000000000     0.223500000000     0          
C242     C      0.229800000000     0.000000000000     0.270100000000     0          
C243     C      0.242400000000     0.000000000000     0.317700000000     0          
H244     H      0.276700000000     0.000000000000     0.326000000000     0          
O245     O      0.133600000000     0.500000000000     0.928700000000     0          
O246     O      0.071600000000     0.500000000000     0.866400000000     0          
C247     C      0.117800000000     0.500000000000     0.882500000000     0          
C248     C      0.156900000000     0.500000000000     0.843100000000     0          
C249     C      0.207000000000     0.500000000000     0.856800000000     0          
C250     C      0.143500000000     0.500000000000     0.793100000000     0          
C251     C      0.182300000000     0.500000000000     0.757800000000     0          
H252     H      0.173800000000     0.500000000000     0.723500000000     0          
C253     C      0.229800000000     0.500000000000     0.770100000000     0          
C254     C      0.242400000000     0.500000000000     0.817700000000     0          
H255     H      0.276700000000     0.500000000000     0.826000000000     0          
O256     O      0.366400000000     0.000000000000     0.928700000000     0          
O257     O      0.428400000000     0.000000000000     0.866400000000     0          
C258     C      0.382200000000     0.000000000000     0.882500000000     0          
C259     C      0.343100000000     0.000000000000     0.843100000000     0          
C260     C      0.293000000000     0.000000000000     0.856800000000     0          
C261     C      0.356500000000     0.000000000000     0.793100000000     0          
C262     C      0.317700000000     0.000000000000     0.757800000000     0          
H263     H      0.326200000000     0.000000000000     0.723500000000     0          
C264     C      0.270200000000     0.000000000000     0.770100000000     0          
C265     C      0.257600000000     0.000000000000     0.817700000000     0          
H266     H      0.223300000000     0.000000000000     0.826000000000     0          
O267     O      0.366400000000     0.500000000000     0.428700000000     0          
O268     O      0.428400000000     0.500000000000     0.366400000000     0          
C269     C      0.382200000000     0.500000000000     0.382500000000     0          
C270     C      0.343100000000     0.500000000000     0.343100000000     0          
C271     C      0.293000000000     0.500000000000     0.356800000000     0          
C272     C      0.356500000000     0.500000000000     0.293100000000     0          
C273     C      0.317700000000     0.500000000000     0.257800000000     0          
H274     H      0.326200000000     0.500000000000     0.223500000000     0          
C275     C      0.270200000000     0.500000000000     0.270100000000     0          
C276     C      0.257600000000     0.500000000000     0.317700000000     0          
H277     H      0.223300000000     0.500000000000     0.326000000000     0          
O278     O      0.866400000000     0.000000000000     0.428700000000     0          
O279     O      0.928400000000     0.000000000000     0.366400000000     0          
C280     C      0.882200000000     0.000000000000     0.382500000000     0          
C281     C      0.843100000000     0.000000000000     0.343100000000     0          
C282     C      0.793000000000     0.000000000000     0.356800000000     0          
C283     C      0.856500000000     0.000000000000     0.293100000000     0          
C284     C      0.817700000000     0.000000000000     0.257800000000     0          
H285     H      0.826200000000     0.000000000000     0.223500000000     0          
C286     C      0.770200000000     0.000000000000     0.270100000000     0          
C287     C      0.757600000000     0.000000000000     0.317700000000     0          
H288     H      0.723300000000     0.000000000000     0.326000000000     0          
O289     O      0.866400000000     0.500000000000     0.928700000000     0          
O290     O      0.928400000000     0.500000000000     0.866400000000     0          
C291     C      0.882200000000     0.500000000000     0.882500000000     0          
C292     C      0.843100000000     0.500000000000     0.843100000000     0          
C293     C      0.793000000000     0.500000000000     0.856800000000     0          
C294     C      0.856500000000     0.500000000000     0.793100000000     0          
C295     C      0.817700000000     0.500000000000     0.757800000000     0          
H296     H      0.826200000000     0.500000000000     0.723500000000     0          
C297     C      0.770200000000     0.500000000000     0.770100000000     0          
C298     C      0.757600000000     0.500000000000     0.817700000000     0          
H299     H      0.723300000000     0.500000000000     0.826000000000     0          
O300     O      0.774900000000     0.500000000000     0.903900000000     0          
O301     O      0.071300000000     0.366400000000     0.000000000000     0          
O302     O      0.133600000000     0.428400000000     0.000000000000     0          
C303     C      0.117500000000     0.382200000000     0.000000000000     0          
C304     C      0.156900000000     0.343100000000     0.000000000000     0          
C305     C      0.143200000000     0.293000000000     0.000000000000     0          
C306     C      0.206900000000     0.356500000000     0.000000000000     0          
C307     C      0.242200000000     0.317700000000     0.000000000000     0          
H308     H      0.276500000000     0.326200000000     0.000000000000     0          
C309     C      0.229900000000     0.270200000000     0.000000000000     0          
C310     C      0.182300000000     0.257600000000     0.000000000000     0          
H311     H      0.174000000000     0.223300000000     0.000000000000     0          
O312     O      0.071300000000     0.866400000000     0.500000000000     0          
O313     O      0.133600000000     0.928400000000     0.500000000000     0          
C314     C      0.117500000000     0.882200000000     0.500000000000     0          
C315     C      0.156900000000     0.843100000000     0.500000000000     0          
C316     C      0.143200000000     0.793000000000     0.500000000000     0          
C317     C      0.206900000000     0.856500000000     0.500000000000     0          
C318     C      0.242200000000     0.817700000000     0.500000000000     0          
H319     H      0.276500000000     0.826200000000     0.500000000000     0          
C320     C      0.229900000000     0.770200000000     0.500000000000     0          
C321     C      0.182300000000     0.757600000000     0.500000000000     0          
H322     H      0.174000000000     0.723300000000     0.500000000000     0          
O323     O      0.096100000000     0.774900000000     0.500000000000     0          
O324     O      0.571300000000     0.366400000000     0.500000000000     0          
O325     O      0.633600000000     0.428400000000     0.500000000000     0          
C326     C      0.617500000000     0.382200000000     0.500000000000     0          
C327     C      0.656900000000     0.343100000000     0.500000000000     0          
C328     C      0.643200000000     0.293000000000     0.500000000000     0          
C329     C      0.706900000000     0.356500000000     0.500000000000     0          
C330     C      0.742200000000     0.317700000000     0.500000000000     0          
H331     H      0.776500000000     0.326200000000     0.500000000000     0          
C332     C      0.729900000000     0.270200000000     0.500000000000     0          
C333     C      0.682300000000     0.257600000000     0.500000000000     0          
H334     H      0.674000000000     0.223300000000     0.500000000000     0          
O335     O      0.596100000000     0.274900000000     0.500000000000     0          
O336     O      0.571300000000     0.866400000000     0.000000000000     0          
O337     O      0.633600000000     0.928400000000     0.000000000000     0          
C338     C      0.617500000000     0.882200000000     0.000000000000     0          
C339     C      0.656900000000     0.843100000000     0.000000000000     0          
C340     C      0.643200000000     0.793000000000     0.000000000000     0          
C341     C      0.706900000000     0.856500000000     0.000000000000     0          
C342     C      0.742200000000     0.817700000000     0.000000000000     0          
H343     H      0.776500000000     0.826200000000     0.000000000000     0          
C344     C      0.729900000000     0.770200000000     0.000000000000     0          
C345     C      0.682300000000     0.757600000000     0.000000000000     0          
H346     H      0.674000000000     0.723300000000     0.000000000000     0          
O347     O      0.071300000000     0.633600000000     0.000000000000     0          
O348     O      0.133600000000     0.571600000000     0.000000000000     0          
C349     C      0.117500000000     0.617800000000     0.000000000000     0          
C350     C      0.156900000000     0.656900000000     0.000000000000     0          
C351     C      0.143200000000     0.707000000000     0.000000000000     0          
C352     C      0.206900000000     0.643500000000     0.000000000000     0          
C353     C      0.242200000000     0.682300000000     0.000000000000     0          
H354     H      0.276500000000     0.673800000000     0.000000000000     0          
C355     C      0.229900000000     0.729800000000     0.000000000000     0          
C356     C      0.182300000000     0.742400000000     0.000000000000     0          
H357     H      0.174000000000     0.776700000000     0.000000000000     0          
O358     O      0.071300000000     0.133600000000     0.500000000000     0          
O359     O      0.133600000000     0.071600000000     0.500000000000     0          
C360     C      0.117500000000     0.117800000000     0.500000000000     0          
C361     C      0.156900000000     0.156900000000     0.500000000000     0          
C362     C      0.143200000000     0.207000000000     0.500000000000     0          
C363     C      0.206900000000     0.143500000000     0.500000000000     0          
C364     C      0.242200000000     0.182300000000     0.500000000000     0          
H365     H      0.276500000000     0.173800000000     0.500000000000     0          
C366     C      0.229900000000     0.229800000000     0.500000000000     0          
C367     C      0.182300000000     0.242400000000     0.500000000000     0          
H368     H      0.174000000000     0.276700000000     0.500000000000     0          
O369     O      0.096100000000     0.225100000000     0.500000000000     0          
O370     O      0.571300000000     0.633600000000     0.500000000000     0          
O371     O      0.633600000000     0.571600000000     0.500000000000     0          
C372     C      0.617500000000     0.617800000000     0.500000000000     0          
C373     C      0.656900000000     0.656900000000     0.500000000000     0          
C374     C      0.643200000000     0.707000000000     0.500000000000     0          
C375     C      0.706900000000     0.643500000000     0.500000000000     0          
C376     C      0.742200000000     0.682300000000     0.500000000000     0          
H377     H      0.776500000000     0.673800000000     0.500000000000     0          
C378     C      0.729900000000     0.729800000000     0.500000000000     0          
C379     C      0.682300000000     0.742400000000     0.500000000000     0          
H380     H      0.674000000000     0.776700000000     0.500000000000     0          
O381     O      0.571300000000     0.133600000000     0.000000000000     0          
O382     O      0.633600000000     0.071600000000     0.000000000000     0          
C383     C      0.617500000000     0.117800000000     0.000000000000     0          
C384     C      0.656900000000     0.156900000000     0.000000000000     0          
C385     C      0.643200000000     0.207000000000     0.000000000000     0          
C386     C      0.706900000000     0.143500000000     0.000000000000     0          
C387     C      0.742200000000     0.182300000000     0.000000000000     0          
H388     H      0.776500000000     0.173800000000     0.000000000000     0          
C389     C      0.729900000000     0.229800000000     0.000000000000     0          
C390     C      0.682300000000     0.242400000000     0.000000000000     0          
H391     H      0.674000000000     0.276700000000     0.000000000000     0          
O392     O      0.928700000000     0.633600000000     0.000000000000     0          
O393     O      0.866400000000     0.571600000000     0.000000000000     0          
C394     C      0.882500000000     0.617800000000     0.000000000000     0          
C395     C      0.843100000000     0.656900000000     0.000000000000     0          
C396     C      0.856800000000     0.707000000000     0.000000000000     0          
C397     C      0.793100000000     0.643500000000     0.000000000000     0          
C398     C      0.757800000000     0.682300000000     0.000000000000     0          
H399     H      0.723500000000     0.673800000000     0.000000000000     0          
C400     C      0.770100000000     0.729800000000     0.000000000000     0          
C401     C      0.817700000000     0.742400000000     0.000000000000     0          
H402     H      0.826000000000     0.776700000000     0.000000000000     0          
O403     O      0.903900000000     0.725100000000     0.000000000000     0          
O404     O      0.928700000000     0.133600000000     0.500000000000     0          
O405     O      0.866400000000     0.071600000000     0.500000000000     0          
C406     C      0.882500000000     0.117800000000     0.500000000000     0          
C407     C      0.843100000000     0.156900000000     0.500000000000     0          
C408     C      0.856800000000     0.207000000000     0.500000000000     0          
C409     C      0.793100000000     0.143500000000     0.500000000000     0          
C410     C      0.757800000000     0.182300000000     0.500000000000     0          
H411     H      0.723500000000     0.173800000000     0.500000000000     0          
C412     C      0.770100000000     0.229800000000     0.500000000000     0          
C413     C      0.817700000000     0.242400000000     0.500000000000     0          
H414     H      0.826000000000     0.276700000000     0.500000000000     0          
O415     O      0.428700000000     0.633600000000     0.500000000000     0          
O416     O      0.366400000000     0.571600000000     0.500000000000     0          
C417     C      0.382500000000     0.617800000000     0.500000000000     0          
C418     C      0.343100000000     0.656900000000     0.500000000000     0          
C419     C      0.356800000000     0.707000000000     0.500000000000     0          
C420     C      0.293100000000     0.643500000000     0.500000000000     0          
C421     C      0.257800000000     0.682300000000     0.500000000000     0          
H422     H      0.223500000000     0.673800000000     0.500000000000     0          
C423     C      0.270100000000     0.729800000000     0.500000000000     0          
C424     C      0.317700000000     0.742400000000     0.500000000000     0          
H425     H      0.326000000000     0.776700000000     0.500000000000     0          
O426     O      0.403900000000     0.725100000000     0.500000000000     0          
O427     O      0.428700000000     0.133600000000     0.000000000000     0          
O428     O      0.366400000000     0.071600000000     0.000000000000     0          
C429     C      0.382500000000     0.117800000000     0.000000000000     0          
C430     C      0.343100000000     0.156900000000     0.000000000000     0          
C431     C      0.356800000000     0.207000000000     0.000000000000     0          
C432     C      0.293100000000     0.143500000000     0.000000000000     0          
C433     C      0.257800000000     0.182300000000     0.000000000000     0          
H434     H      0.223500000000     0.173800000000     0.000000000000     0          
C435     C      0.270100000000     0.229800000000     0.000000000000     0          
C436     C      0.317700000000     0.242400000000     0.000000000000     0          
H437     H      0.326000000000     0.276700000000     0.000000000000     0          
O438     O      0.928700000000     0.366400000000     0.000000000000     0          
O439     O      0.866400000000     0.428400000000     0.000000000000     0          
C440     C      0.882500000000     0.382200000000     0.000000000000     0          
C441     C      0.843100000000     0.343100000000     0.000000000000     0          
C442     C      0.856800000000     0.293000000000     0.000000000000     0          
C443     C      0.793100000000     0.356500000000     0.000000000000     0          
C444     C      0.757800000000     0.317700000000     0.000000000000     0          
H445     H      0.723500000000     0.326200000000     0.000000000000     0          
C446     C      0.770100000000     0.270200000000     0.000000000000     0          
C447     C      0.817700000000     0.257600000000     0.000000000000     0          
H448     H      0.826000000000     0.223300000000     0.000000000000     0          
O449     O      0.928700000000     0.866400000000     0.500000000000     0          
O450     O      0.866400000000     0.928400000000     0.500000000000     0          
C451     C      0.882500000000     0.882200000000     0.500000000000     0          
C452     C      0.843100000000     0.843100000000     0.500000000000     0          
C453     C      0.856800000000     0.793000000000     0.500000000000     0          
C454     C      0.793100000000     0.856500000000     0.500000000000     0          
C455     C      0.757800000000     0.817700000000     0.500000000000     0          
H456     H      0.723500000000     0.826200000000     0.500000000000     0          
C457     C      0.770100000000     0.770200000000     0.500000000000     0          
C458     C      0.817700000000     0.757600000000     0.500000000000     0          
H459     H      0.826000000000     0.723300000000     0.500000000000     0          
O460     O      0.428700000000     0.366400000000     0.500000000000     0          
O461     O      0.366400000000     0.428400000000     0.500000000000     0          
C462     C      0.382500000000     0.382200000000     0.500000000000     0          
C463     C      0.343100000000     0.343100000000     0.500000000000     0          
C464     C      0.356800000000     0.293000000000     0.500000000000     0          
C465     C      0.293100000000     0.356500000000     0.500000000000     0          
C466     C      0.257800000000     0.317700000000     0.500000000000     0          
H467     H      0.223500000000     0.326200000000     0.500000000000     0          
C468     C      0.270100000000     0.270200000000     0.500000000000     0          
C469     C      0.317700000000     0.257600000000     0.500000000000     0          
H470     H      0.326000000000     0.223300000000     0.500000000000     0          
O471     O      0.403900000000     0.274900000000     0.500000000000     0          
O472     O      0.428700000000     0.866400000000     0.000000000000     0          
O473     O      0.366400000000     0.928400000000     0.000000000000     0          
C474     C      0.382500000000     0.882200000000     0.000000000000     0          
C475     C      0.343100000000     0.843100000000     0.000000000000     0          
C476     C      0.356800000000     0.793000000000     0.000000000000     0          
C477     C      0.293100000000     0.856500000000     0.000000000000     0          
C478     C      0.257800000000     0.817700000000     0.000000000000     0          
H479     H      0.223500000000     0.826200000000     0.000000000000     0          
C480     C      0.270100000000     0.770200000000     0.000000000000     0          
C481     C      0.317700000000     0.757600000000     0.000000000000     0          
H482     H      0.326000000000     0.723300000000     0.000000000000     0          
O483     O      0.000000000000     0.071300000000     0.366400000000     0          
O484     O      0.000000000000     0.133600000000     0.428400000000     0          
C485     C      0.000000000000     0.117500000000     0.382200000000     0          
C486     C      0.000000000000     0.156900000000     0.343100000000     0          
C487     C      0.000000000000     0.143200000000     0.293000000000     0          
C488     C      0.000000000000     0.206900000000     0.356500000000     0          
C489     C      0.000000000000     0.242200000000     0.317700000000     0          
H490     H      0.000000000000     0.276500000000     0.326200000000     0          
C491     C      0.000000000000     0.229900000000     0.270200000000     0          
C492     C      0.000000000000     0.182300000000     0.257600000000     0          
H493     H      0.000000000000     0.174000000000     0.223300000000     0          
O494     O      0.000000000000     0.571300000000     0.866400000000     0          
O495     O      0.000000000000     0.633600000000     0.928400000000     0          
C496     C      0.000000000000     0.617500000000     0.882200000000     0          
C497     C      0.000000000000     0.656900000000     0.843100000000     0          
C498     C      0.000000000000     0.643200000000     0.793000000000     0          
C499     C      0.000000000000     0.706900000000     0.856500000000     0          
C500     C      0.000000000000     0.742200000000     0.817700000000     0          
H501     H      0.000000000000     0.776500000000     0.826200000000     0          
C502     C      0.000000000000     0.729900000000     0.770200000000     0          
C503     C      0.000000000000     0.682300000000     0.757600000000     0          
H504     H      0.000000000000     0.674000000000     0.723300000000     0          
O505     O      0.500000000000     0.071300000000     0.866400000000     0          
O506     O      0.500000000000     0.133600000000     0.928400000000     0          
C507     C      0.500000000000     0.117500000000     0.882200000000     0          
C508     C      0.500000000000     0.156900000000     0.843100000000     0          
C509     C      0.500000000000     0.143200000000     0.793000000000     0          
C510     C      0.500000000000     0.206900000000     0.856500000000     0          
C511     C      0.500000000000     0.242200000000     0.817700000000     0          
H512     H      0.500000000000     0.276500000000     0.826200000000     0          
C513     C      0.500000000000     0.229900000000     0.770200000000     0          
C514     C      0.500000000000     0.182300000000     0.757600000000     0          
H515     H      0.500000000000     0.174000000000     0.723300000000     0          
O516     O      0.500000000000     0.096100000000     0.774900000000     0          
O517     O      0.500000000000     0.571300000000     0.366400000000     0          
O518     O      0.500000000000     0.633600000000     0.428400000000     0          
C519     C      0.500000000000     0.617500000000     0.382200000000     0          
C520     C      0.500000000000     0.656900000000     0.343100000000     0          
C521     C      0.500000000000     0.643200000000     0.293000000000     0          
C522     C      0.500000000000     0.706900000000     0.356500000000     0          
C523     C      0.500000000000     0.742200000000     0.317700000000     0          
H524     H      0.500000000000     0.776500000000     0.326200000000     0          
C525     C      0.500000000000     0.729900000000     0.270200000000     0          
C526     C      0.500000000000     0.682300000000     0.257600000000     0          
H527     H      0.500000000000     0.674000000000     0.223300000000     0          
O528     O      0.500000000000     0.596100000000     0.274900000000     0          
O529     O      0.000000000000     0.071300000000     0.633600000000     0          
O530     O      0.000000000000     0.133600000000     0.571600000000     0          
C531     C      0.000000000000     0.117500000000     0.617800000000     0          
C532     C      0.000000000000     0.156900000000     0.656900000000     0          
C533     C      0.000000000000     0.143200000000     0.707000000000     0          
C534     C      0.000000000000     0.206900000000     0.643500000000     0          
C535     C      0.000000000000     0.242200000000     0.682300000000     0          
H536     H      0.000000000000     0.276500000000     0.673800000000     0          
C537     C      0.000000000000     0.229900000000     0.729800000000     0          
C538     C      0.000000000000     0.182300000000     0.742400000000     0          
H539     H      0.000000000000     0.174000000000     0.776700000000     0          
O540     O      0.000000000000     0.571300000000     0.133600000000     0          
O541     O      0.000000000000     0.633600000000     0.071600000000     0          
C542     C      0.000000000000     0.617500000000     0.117800000000     0          
C543     C      0.000000000000     0.656900000000     0.156900000000     0          
C544     C      0.000000000000     0.643200000000     0.207000000000     0          
C545     C      0.000000000000     0.706900000000     0.143500000000     0          
C546     C      0.000000000000     0.742200000000     0.182300000000     0          
H547     H      0.000000000000     0.776500000000     0.173800000000     0          
C548     C      0.000000000000     0.729900000000     0.229800000000     0          
C549     C      0.000000000000     0.682300000000     0.242400000000     0          
H550     H      0.000000000000     0.674000000000     0.276700000000     0          
O551     O      0.500000000000     0.071300000000     0.133600000000     0          
O552     O      0.500000000000     0.133600000000     0.071600000000     0          
C553     C      0.500000000000     0.117500000000     0.117800000000     0          
C554     C      0.500000000000     0.156900000000     0.156900000000     0          
C555     C      0.500000000000     0.143200000000     0.207000000000     0          
C556     C      0.500000000000     0.206900000000     0.143500000000     0          
C557     C      0.500000000000     0.242200000000     0.182300000000     0          
H558     H      0.500000000000     0.276500000000     0.173800000000     0          
C559     C      0.500000000000     0.229900000000     0.229800000000     0          
C560     C      0.500000000000     0.182300000000     0.242400000000     0          
H561     H      0.500000000000     0.174000000000     0.276700000000     0          
O562     O      0.500000000000     0.096100000000     0.225100000000     0          
O563     O      0.500000000000     0.571300000000     0.633600000000     0          
O564     O      0.500000000000     0.633600000000     0.571600000000     0          
C565     C      0.500000000000     0.617500000000     0.617800000000     0          
C566     C      0.500000000000     0.656900000000     0.656900000000     0          
C567     C      0.500000000000     0.643200000000     0.707000000000     0          
C568     C      0.500000000000     0.706900000000     0.643500000000     0          
C569     C      0.500000000000     0.742200000000     0.682300000000     0          
H570     H      0.500000000000     0.776500000000     0.673800000000     0          
C571     C      0.500000000000     0.729900000000     0.729800000000     0          
C572     C      0.500000000000     0.682300000000     0.742400000000     0          
H573     H      0.500000000000     0.674000000000     0.776700000000     0          
O574     O      0.500000000000     0.596100000000     0.725100000000     0          
O575     O      0.000000000000     0.928700000000     0.633600000000     0          
O576     O      0.000000000000     0.866400000000     0.571600000000     0          
C577     C      0.000000000000     0.882500000000     0.617800000000     0          
C578     C      0.000000000000     0.843100000000     0.656900000000     0          
C579     C      0.000000000000     0.856800000000     0.707000000000     0          
C580     C      0.000000000000     0.793100000000     0.643500000000     0          
C581     C      0.000000000000     0.757800000000     0.682300000000     0          
H582     H      0.000000000000     0.723500000000     0.673800000000     0          
C583     C      0.000000000000     0.770100000000     0.729800000000     0          
C584     C      0.000000000000     0.817700000000     0.742400000000     0          
H585     H      0.000000000000     0.826000000000     0.776700000000     0          
O586     O      0.000000000000     0.428700000000     0.133600000000     0          
O587     O      0.000000000000     0.366400000000     0.071600000000     0          
C588     C      0.000000000000     0.382500000000     0.117800000000     0          
C589     C      0.000000000000     0.343100000000     0.156900000000     0          
C590     C      0.000000000000     0.356800000000     0.207000000000     0          
C591     C      0.000000000000     0.293100000000     0.143500000000     0          
C592     C      0.000000000000     0.257800000000     0.182300000000     0          
H593     H      0.000000000000     0.223500000000     0.173800000000     0          
C594     C      0.000000000000     0.270100000000     0.229800000000     0          
C595     C      0.000000000000     0.317700000000     0.242400000000     0          
H596     H      0.000000000000     0.326000000000     0.276700000000     0          
O597     O      0.500000000000     0.928700000000     0.133600000000     0          
O598     O      0.500000000000     0.866400000000     0.071600000000     0          
C599     C      0.500000000000     0.882500000000     0.117800000000     0          
C600     C      0.500000000000     0.843100000000     0.156900000000     0          
C601     C      0.500000000000     0.856800000000     0.207000000000     0          
C602     C      0.500000000000     0.793100000000     0.143500000000     0          
C603     C      0.500000000000     0.757800000000     0.182300000000     0          
H604     H      0.500000000000     0.723500000000     0.173800000000     0          
C605     C      0.500000000000     0.770100000000     0.229800000000     0          
C606     C      0.500000000000     0.817700000000     0.242400000000     0          
H607     H      0.500000000000     0.826000000000     0.276700000000     0          
O608     O      0.500000000000     0.903900000000     0.225100000000     0          
O609     O      0.500000000000     0.428700000000     0.633600000000     0          
O610     O      0.500000000000     0.366400000000     0.571600000000     0          
C611     C      0.500000000000     0.382500000000     0.617800000000     0          
C612     C      0.500000000000     0.343100000000     0.656900000000     0          
C613     C      0.500000000000     0.356800000000     0.707000000000     0          
C614     C      0.500000000000     0.293100000000     0.643500000000     0          
C615     C      0.500000000000     0.257800000000     0.682300000000     0          
H616     H      0.500000000000     0.223500000000     0.673800000000     0          
C617     C      0.500000000000     0.270100000000     0.729800000000     0          
C618     C      0.500000000000     0.317700000000     0.742400000000     0          
H619     H      0.500000000000     0.326000000000     0.776700000000     0          
O620     O      0.000000000000     0.928700000000     0.366400000000     0          
O621     O      0.000000000000     0.866400000000     0.428400000000     0          
C622     C      0.000000000000     0.882500000000     0.382200000000     0          
C623     C      0.000000000000     0.843100000000     0.343100000000     0          
C624     C      0.000000000000     0.856800000000     0.293000000000     0          
C625     C      0.000000000000     0.793100000000     0.356500000000     0          
C626     C      0.000000000000     0.757800000000     0.317700000000     0          
H627     H      0.000000000000     0.723500000000     0.326200000000     0          
C628     C      0.000000000000     0.770100000000     0.270200000000     0          
C629     C      0.000000000000     0.817700000000     0.257600000000     0          
H630     H      0.000000000000     0.826000000000     0.223300000000     0          
O631     O      0.000000000000     0.428700000000     0.866400000000     0          
O632     O      0.000000000000     0.366400000000     0.928400000000     0          
C633     C      0.000000000000     0.382500000000     0.882200000000     0          
C634     C      0.000000000000     0.343100000000     0.843100000000     0          
C635     C      0.000000000000     0.356800000000     0.793000000000     0          
C636     C      0.000000000000     0.293100000000     0.856500000000     0          
C637     C      0.000000000000     0.257800000000     0.817700000000     0          
H638     H      0.000000000000     0.223500000000     0.826200000000     0          
C639     C      0.000000000000     0.270100000000     0.770200000000     0          
C640     C      0.000000000000     0.317700000000     0.757600000000     0          
H641     H      0.000000000000     0.326000000000     0.723300000000     0          
O642     O      0.500000000000     0.928700000000     0.866400000000     0          
O643     O      0.500000000000     0.866400000000     0.928400000000     0          
C644     C      0.500000000000     0.882500000000     0.882200000000     0          
C645     C      0.500000000000     0.843100000000     0.843100000000     0          
C646     C      0.500000000000     0.856800000000     0.793000000000     0          
C647     C      0.500000000000     0.793100000000     0.856500000000     0          
C648     C      0.500000000000     0.757800000000     0.817700000000     0          
H649     H      0.500000000000     0.723500000000     0.826200000000     0          
C650     C      0.500000000000     0.770100000000     0.770200000000     0          
C651     C      0.500000000000     0.817700000000     0.757600000000     0          
H652     H      0.500000000000     0.826000000000     0.723300000000     0          
O653     O      0.500000000000     0.903900000000     0.774900000000     0          
O654     O      0.500000000000     0.428700000000     0.366400000000     0          
O655     O      0.500000000000     0.366400000000     0.428400000000     0          
C656     C      0.500000000000     0.382500000000     0.382200000000     0          
C657     C      0.500000000000     0.343100000000     0.343100000000     0          
C658     C      0.500000000000     0.356800000000     0.293000000000     0          
C659     C      0.500000000000     0.293100000000     0.356500000000     0          
C660     C      0.500000000000     0.257800000000     0.317700000000     0          
H661     H      0.500000000000     0.223500000000     0.326200000000     0          
C662     C      0.500000000000     0.270100000000     0.270200000000     0          
C663     C      0.500000000000     0.317700000000     0.257600000000     0          
H664     H      0.500000000000     0.326000000000     0.223300000000     0          
H665     H      0.717890000000     0.897510000000     0.000000000000     0          
H666     H      0.782110000000     0.602490000000     0.000000000000     0          
H667     H      0.717890000000     0.602490000000     0.500000000000     0          
H668     H      0.782110000000     0.897510000000     0.500000000000     0          
H669     H      0.217890000000     0.602490000000     0.000000000000     0          
H670     H      0.282110000000     0.897510000000     0.000000000000     0          
H671     H      0.217890000000     0.897510000000     0.500000000000     0          
H672     H      0.282110000000     0.602490000000     0.500000000000     0          
H673     H      0.717890000000     0.102490000000     0.000000000000     0          
H674     H      0.782110000000     0.397510000000     0.000000000000     0          
H675     H      0.717890000000     0.397510000000     0.500000000000     0          
H676     H      0.782110000000     0.102490000000     0.500000000000     0          
H677     H      0.217890000000     0.397510000000     0.000000000000     0          
H678     H      0.282110000000     0.102490000000     0.000000000000     0          
H679     H      0.217890000000     0.102490000000     0.500000000000     0          
H680     H      0.282110000000     0.397510000000     0.500000000000     0          
H681     H      0.000000000000     0.717890000000     0.897510000000     0          
H682     H      0.000000000000     0.782110000000     0.602490000000     0          
H683     H      0.500000000000     0.717890000000     0.602490000000     0          
H684     H      0.500000000000     0.782110000000     0.897510000000     0          
H685     H      0.000000000000     0.717890000000     0.102490000000     0          
H686     H      0.000000000000     0.782110000000     0.397510000000     0          
H687     H      0.500000000000     0.782110000000     0.102490000000     0          
H688     H      0.500000000000     0.717890000000     0.397510000000     0          
H689     H      0.000000000000     0.217890000000     0.602490000000     0          
H690     H      0.000000000000     0.282110000000     0.897510000000     0          
H691     H      0.500000000000     0.282110000000     0.602490000000     0          
H692     H      0.500000000000     0.217890000000     0.897510000000     0          
H693     H      0.000000000000     0.217890000000     0.397510000000     0          
H694     H      0.000000000000     0.282110000000     0.102490000000     0          
H695     H      0.500000000000     0.217890000000     0.102490000000     0          
H696     H      0.500000000000     0.282110000000     0.397510000000     0          
H697     H      0.897510000000     0.000000000000     0.717890000000     0          
H698     H      0.602490000000     0.000000000000     0.782110000000     0          
H699     H      0.602490000000     0.500000000000     0.717890000000     0          
H700     H      0.897510000000     0.500000000000     0.782110000000     0          
H701     H      0.102490000000     0.000000000000     0.717890000000     0          
H702     H      0.397510000000     0.000000000000     0.782110000000     0          
H703     H      0.397510000000     0.500000000000     0.717890000000     0          
H704     H      0.102490000000     0.500000000000     0.782110000000     0          
H705     H      0.397510000000     0.000000000000     0.217890000000     0          
H706     H      0.102490000000     0.000000000000     0.282110000000     0          
H707     H      0.397510000000     0.500000000000     0.282110000000     0          
H708     H      0.102490000000     0.500000000000     0.217890000000     0          
H709     H      0.602490000000     0.000000000000     0.217890000000     0          
H710     H      0.897510000000     0.000000000000     0.282110000000     0          
H711     H      0.897510000000     0.500000000000     0.217890000000     0          
H712     H      0.602490000000     0.500000000000     0.282110000000     0          


