data_BUNLAZ

_audit_creation_method RASPA-1.0
_audit_creation_date 2020-11-2
_audit_author_name 'Rocio Bueno-Perez'

_cell_length_a    50.72
_cell_length_b    50.72
_cell_length_c    15.502
_cell_angle_alpha 90
_cell_angle_beta  90
_cell_angle_gamma 120
_cell_volume      34536.4

_symmetry_cell_setting          hexagonal
_symmetry_space_group_name_Hall 'P 1'
_symmetry_space_group_name_H-M  'P 1'
_symmetry_Int_Tables_number     1

_symmetry_equiv_pos_as_xyz 'x,y,z'

loop_
_atom_site_label
_atom_site_type_symbol
_atom_site_fract_x
_atom_site_fract_y
_atom_site_fract_z
_atom_site_charge
O5       O      0.510470000000     0.074940000000     0.093080000000     0          
O6       O      0.470000000000     0.042200000000     0.166050000000     0          
C1       C      0.489700000000     0.069840000000     0.148330000000     0          
C2       C      0.487870000000     0.095790000000     0.193340000000     0          
C3       C      0.459680000000     0.092410000000     0.214170000000     0          
C4       C      0.458020000000     0.115940000000     0.254980000000     0          
C5       C      0.484170000000     0.143090000000     0.275720000000     0          
C6       C      0.512730000000     0.146220000000     0.254130000000     0          
C7       C      0.514390000000     0.122690000000     0.213320000000     0          
C8       C      0.481650000000     0.167900000000     0.319470000000     0          
C9       C      0.455050000000     0.161330000000     0.362740000000     0          
C10      C      0.452710000000     0.184480000000     0.403550000000     0          
C11      C      0.476940000000     0.214200000000     0.401160000000     0          
C12      C      0.503570000000     0.220750000000     0.357820000000     0          
C13      C      0.505910000000     0.197610000000     0.317010000000     0          
H1       H      0.440600000000     0.073060000000     0.199800000000     0          
H2       H      0.437750000000     0.113510000000     0.269960000000     0          
H3       H      0.531940000000     0.165490000000     0.268240000000     0          
H4       H      0.534660000000     0.125120000000     0.198340000000     0          
H5       H      0.436010000000     0.138010000000     0.364670000000     0          
H6       H      0.433560000000     0.179720000000     0.434660000000     0          
H7       H      0.521030000000     0.242120000000     0.356030000000     0          
H8       H      0.525050000000     0.202330000000     0.285880000000     0          
Zr1      Zr     0.465390000000     0.000000000000     0.115380000000     0          
Zr2      Zr     0.527420000000     0.054840000000     0.000000000000     0          
O2       O      0.515120000000     0.030240000000     0.123220000000     0          
O3       O      0.477870000000     0.028950000000     0.000000000000     0          
C14      C      0.478820000000     0.239410000000     0.456450000000     0          
O5       O      0.435530000000     0.510470000000     0.093080000000     0          
O6       O      0.427800000000     0.470000000000     0.166050000000     0          
C1       C      0.419860000000     0.489700000000     0.148330000000     0          
C2       C      0.392080000000     0.487870000000     0.193340000000     0          
C3       C      0.367270000000     0.459680000000     0.214170000000     0          
C4       C      0.342080000000     0.458020000000     0.254980000000     0          
C5       C      0.341080000000     0.484170000000     0.275720000000     0          
C6       C      0.366510000000     0.512730000000     0.254130000000     0          
C7       C      0.391700000000     0.514390000000     0.213320000000     0          
C8       C      0.313750000000     0.481650000000     0.319470000000     0          
C9       C      0.293720000000     0.455050000000     0.362740000000     0          
C10      C      0.268230000000     0.452710000000     0.403550000000     0          
C11      C      0.262740000000     0.476940000000     0.401160000000     0          
C12      C      0.282820000000     0.503570000000     0.357820000000     0          
C13      C      0.308300000000     0.505910000000     0.317010000000     0          
H1       H      0.367540000000     0.440600000000     0.199800000000     0          
H2       H      0.324240000000     0.437750000000     0.269960000000     0          
H3       H      0.366450000000     0.531940000000     0.268240000000     0          
H4       H      0.409540000000     0.534660000000     0.198340000000     0          
H5       H      0.298000000000     0.436010000000     0.364670000000     0          
H6       H      0.253840000000     0.433560000000     0.434660000000     0          
H7       H      0.278910000000     0.521030000000     0.356030000000     0          
H8       H      0.322720000000     0.525050000000     0.285880000000     0          
Zr1      Zr     0.465390000000     0.465390000000     0.115380000000     0          
Zr2      Zr     0.472580000000     0.527420000000     0.000000000000     0          
O2       O      0.484880000000     0.515120000000     0.123220000000     0          
O3       O      0.448920000000     0.477870000000     0.000000000000     0          
C14      C      0.239410000000     0.478820000000     0.456450000000     0          
O5       O      0.925060000000     0.435530000000     0.093080000000     0          
O6       O      0.957800000000     0.427800000000     0.166050000000     0          
C1       C      0.930160000000     0.419860000000     0.148330000000     0          
C2       C      0.904210000000     0.392080000000     0.193340000000     0          
C3       C      0.907590000000     0.367270000000     0.214170000000     0          
C4       C      0.884060000000     0.342080000000     0.254980000000     0          
C5       C      0.856910000000     0.341080000000     0.275720000000     0          
C6       C      0.853780000000     0.366510000000     0.254130000000     0          
C7       C      0.877310000000     0.391700000000     0.213320000000     0          
C8       C      0.832100000000     0.313750000000     0.319470000000     0          
C9       C      0.838670000000     0.293720000000     0.362740000000     0          
C10      C      0.815520000000     0.268230000000     0.403550000000     0          
C11      C      0.785800000000     0.262740000000     0.401160000000     0          
C12      C      0.779250000000     0.282820000000     0.357820000000     0          
C13      C      0.802390000000     0.308300000000     0.317010000000     0          
H1       H      0.926940000000     0.367540000000     0.199800000000     0          
H2       H      0.886490000000     0.324240000000     0.269960000000     0          
H3       H      0.834510000000     0.366450000000     0.268240000000     0          
H4       H      0.874880000000     0.409540000000     0.198340000000     0          
H5       H      0.861990000000     0.298000000000     0.364670000000     0          
H6       H      0.820280000000     0.253840000000     0.434660000000     0          
H7       H      0.757880000000     0.278910000000     0.356030000000     0          
H8       H      0.797670000000     0.322720000000     0.285880000000     0          
Zr1      Zr     0.000000000000     0.465390000000     0.115380000000     0          
Zr2      Zr     0.945160000000     0.472580000000     0.000000000000     0          
O2       O      0.969760000000     0.484880000000     0.123220000000     0          
O3       O      0.971050000000     0.448920000000     0.000000000000     0          
C14      C      0.760590000000     0.239410000000     0.456450000000     0          
O5       O      0.489530000000     0.925060000000     0.093080000000     0          
O6       O      0.530000000000     0.957800000000     0.166050000000     0          
C1       C      0.510300000000     0.930160000000     0.148330000000     0          
C2       C      0.512130000000     0.904210000000     0.193340000000     0          
C3       C      0.540320000000     0.907590000000     0.214170000000     0          
C4       C      0.541980000000     0.884060000000     0.254980000000     0          
C5       C      0.515830000000     0.856910000000     0.275720000000     0          
C6       C      0.487270000000     0.853780000000     0.254130000000     0          
C7       C      0.485610000000     0.877310000000     0.213320000000     0          
C8       C      0.518350000000     0.832100000000     0.319470000000     0          
C9       C      0.544950000000     0.838670000000     0.362740000000     0          
C10      C      0.547290000000     0.815520000000     0.403550000000     0          
C11      C      0.523060000000     0.785800000000     0.401160000000     0          
C12      C      0.496430000000     0.779250000000     0.357820000000     0          
C13      C      0.494090000000     0.802390000000     0.317010000000     0          
H1       H      0.559400000000     0.926940000000     0.199800000000     0          
H2       H      0.562250000000     0.886490000000     0.269960000000     0          
H3       H      0.468060000000     0.834510000000     0.268240000000     0          
H4       H      0.465340000000     0.874880000000     0.198340000000     0          
H5       H      0.563990000000     0.861990000000     0.364670000000     0          
H6       H      0.566440000000     0.820280000000     0.434660000000     0          
H7       H      0.478970000000     0.757880000000     0.356030000000     0          
H8       H      0.474950000000     0.797670000000     0.285880000000     0          
Zr1      Zr     0.534610000000     0.000000000000     0.115380000000     0          
Zr2      Zr     0.472580000000     0.945160000000     0.000000000000     0          
O2       O      0.484880000000     0.969760000000     0.123220000000     0          
O3       O      0.522130000000     0.971050000000     0.000000000000     0          
C14      C      0.521180000000     0.760590000000     0.456450000000     0          
O5       O      0.564470000000     0.489530000000     0.093080000000     0          
O6       O      0.572200000000     0.530000000000     0.166050000000     0          
C1       C      0.580140000000     0.510300000000     0.148330000000     0          
C2       C      0.607920000000     0.512130000000     0.193340000000     0          
C3       C      0.632730000000     0.540320000000     0.214170000000     0          
C4       C      0.657920000000     0.541980000000     0.254980000000     0          
C5       C      0.658920000000     0.515830000000     0.275720000000     0          
C6       C      0.633490000000     0.487270000000     0.254130000000     0          
C7       C      0.608300000000     0.485610000000     0.213320000000     0          
C8       C      0.686250000000     0.518350000000     0.319470000000     0          
C9       C      0.706280000000     0.544950000000     0.362740000000     0          
C10      C      0.731770000000     0.547290000000     0.403550000000     0          
C11      C      0.737260000000     0.523060000000     0.401160000000     0          
C12      C      0.717180000000     0.496430000000     0.357820000000     0          
C13      C      0.691700000000     0.494090000000     0.317010000000     0          
H1       H      0.632460000000     0.559400000000     0.199800000000     0          
H2       H      0.675760000000     0.562250000000     0.269960000000     0          
H3       H      0.633550000000     0.468060000000     0.268240000000     0          
H4       H      0.590460000000     0.465340000000     0.198340000000     0          
H5       H      0.702000000000     0.563990000000     0.364670000000     0          
H6       H      0.746160000000     0.566440000000     0.434660000000     0          
H7       H      0.721090000000     0.478970000000     0.356030000000     0          
H8       H      0.677280000000     0.474950000000     0.285880000000     0          
Zr1      Zr     0.534610000000     0.534610000000     0.115380000000     0          
Zr2      Zr     0.527420000000     0.472580000000     0.000000000000     0          
O2       O      0.515120000000     0.484880000000     0.123220000000     0          
O3       O      0.551080000000     0.522130000000     0.000000000000     0          
C14      C      0.760590000000     0.521180000000     0.456450000000     0          
O5       O      0.074940000000     0.564470000000     0.093080000000     0          
O6       O      0.042200000000     0.572200000000     0.166050000000     0          
C1       C      0.069840000000     0.580140000000     0.148330000000     0          
C2       C      0.095790000000     0.607920000000     0.193340000000     0          
C3       C      0.092410000000     0.632730000000     0.214170000000     0          
C4       C      0.115940000000     0.657920000000     0.254980000000     0          
C5       C      0.143090000000     0.658920000000     0.275720000000     0          
C6       C      0.146220000000     0.633490000000     0.254130000000     0          
C7       C      0.122690000000     0.608300000000     0.213320000000     0          
C8       C      0.167900000000     0.686250000000     0.319470000000     0          
C9       C      0.161330000000     0.706280000000     0.362740000000     0          
C10      C      0.184480000000     0.731770000000     0.403550000000     0          
C11      C      0.214200000000     0.737260000000     0.401160000000     0          
C12      C      0.220750000000     0.717180000000     0.357820000000     0          
C13      C      0.197610000000     0.691700000000     0.317010000000     0          
H1       H      0.073060000000     0.632460000000     0.199800000000     0          
H2       H      0.113510000000     0.675760000000     0.269960000000     0          
H3       H      0.165490000000     0.633550000000     0.268240000000     0          
H4       H      0.125120000000     0.590460000000     0.198340000000     0          
H5       H      0.138010000000     0.702000000000     0.364670000000     0          
H6       H      0.179720000000     0.746160000000     0.434660000000     0          
H7       H      0.242120000000     0.721090000000     0.356030000000     0          
H8       H      0.202330000000     0.677280000000     0.285880000000     0          
Zr1      Zr     0.000000000000     0.534610000000     0.115380000000     0          
Zr2      Zr     0.054840000000     0.527420000000     0.000000000000     0          
O2       O      0.030240000000     0.515120000000     0.123220000000     0          
O3       O      0.028950000000     0.551080000000     0.000000000000     0          
C14      C      0.239410000000     0.760590000000     0.456450000000     0          
O5       O      0.925060000000     0.489530000000     0.906920000000     0          
O6       O      0.957800000000     0.530000000000     0.833950000000     0          
C1       C      0.930160000000     0.510300000000     0.851670000000     0          
C2       C      0.904210000000     0.512130000000     0.806660000000     0          
C3       C      0.907590000000     0.540320000000     0.785830000000     0          
C4       C      0.884060000000     0.541980000000     0.745020000000     0          
C5       C      0.856910000000     0.515830000000     0.724280000000     0          
C6       C      0.853780000000     0.487270000000     0.745870000000     0          
C7       C      0.877310000000     0.485610000000     0.786680000000     0          
C8       C      0.832100000000     0.518350000000     0.680530000000     0          
C9       C      0.838670000000     0.544950000000     0.637260000000     0          
C10      C      0.815520000000     0.547290000000     0.596450000000     0          
C11      C      0.785800000000     0.523060000000     0.598840000000     0          
C12      C      0.779250000000     0.496430000000     0.642180000000     0          
C13      C      0.802390000000     0.494090000000     0.682990000000     0          
H1       H      0.926940000000     0.559400000000     0.800200000000     0          
H2       H      0.886490000000     0.562250000000     0.730040000000     0          
H3       H      0.834510000000     0.468060000000     0.731760000000     0          
H4       H      0.874880000000     0.465340000000     0.801660000000     0          
H5       H      0.861990000000     0.563990000000     0.635330000000     0          
H6       H      0.820280000000     0.566440000000     0.565340000000     0          
H7       H      0.757880000000     0.478970000000     0.643970000000     0          
H8       H      0.797670000000     0.474950000000     0.714120000000     0          
Zr1      Zr     0.000000000000     0.534610000000     0.884620000000     0          
O2       O      0.969760000000     0.484880000000     0.876780000000     0          
O3       O      0.971050000000     0.522130000000     0.000000000000     0          
C14      C      0.760590000000     0.521180000000     0.543550000000     0          
O5       O      0.435530000000     0.925060000000     0.906920000000     0          
O6       O      0.427800000000     0.957800000000     0.833950000000     0          
C1       C      0.419860000000     0.930160000000     0.851670000000     0          
C2       C      0.392080000000     0.904210000000     0.806660000000     0          
C3       C      0.367270000000     0.907590000000     0.785830000000     0          
C4       C      0.342080000000     0.884060000000     0.745020000000     0          
C5       C      0.341080000000     0.856910000000     0.724280000000     0          
C6       C      0.366510000000     0.853780000000     0.745870000000     0          
C7       C      0.391700000000     0.877310000000     0.786680000000     0          
C8       C      0.313750000000     0.832100000000     0.680530000000     0          
C9       C      0.293720000000     0.838670000000     0.637260000000     0          
C10      C      0.268230000000     0.815520000000     0.596450000000     0          
C11      C      0.262740000000     0.785800000000     0.598840000000     0          
C12      C      0.282820000000     0.779250000000     0.642180000000     0          
C13      C      0.308300000000     0.802390000000     0.682990000000     0          
H1       H      0.367540000000     0.926940000000     0.800200000000     0          
H2       H      0.324240000000     0.886490000000     0.730040000000     0          
H3       H      0.366450000000     0.834510000000     0.731760000000     0          
H4       H      0.409540000000     0.874880000000     0.801660000000     0          
H5       H      0.298000000000     0.861990000000     0.635330000000     0          
H6       H      0.253840000000     0.820280000000     0.565340000000     0          
H7       H      0.278910000000     0.757880000000     0.643970000000     0          
H8       H      0.322720000000     0.797670000000     0.714120000000     0          
Zr1      Zr     0.465390000000     0.000000000000     0.884620000000     0          
O2       O      0.484880000000     0.969760000000     0.876780000000     0          
O3       O      0.448920000000     0.971050000000     0.000000000000     0          
C14      C      0.239410000000     0.760590000000     0.543550000000     0          
O5       O      0.510470000000     0.435530000000     0.906920000000     0          
O6       O      0.470000000000     0.427800000000     0.833950000000     0          
C1       C      0.489700000000     0.419860000000     0.851670000000     0          
C2       C      0.487870000000     0.392080000000     0.806660000000     0          
C3       C      0.459680000000     0.367270000000     0.785830000000     0          
C4       C      0.458020000000     0.342080000000     0.745020000000     0          
C5       C      0.484170000000     0.341080000000     0.724280000000     0          
C6       C      0.512730000000     0.366510000000     0.745870000000     0          
C7       C      0.514390000000     0.391700000000     0.786680000000     0          
C8       C      0.481650000000     0.313750000000     0.680530000000     0          
C9       C      0.455050000000     0.293720000000     0.637260000000     0          
C10      C      0.452710000000     0.268230000000     0.596450000000     0          
C11      C      0.476940000000     0.262740000000     0.598840000000     0          
C12      C      0.503570000000     0.282820000000     0.642180000000     0          
C13      C      0.505910000000     0.308300000000     0.682990000000     0          
H1       H      0.440600000000     0.367540000000     0.800200000000     0          
H2       H      0.437750000000     0.324240000000     0.730040000000     0          
H3       H      0.531940000000     0.366450000000     0.731760000000     0          
H4       H      0.534660000000     0.409540000000     0.801660000000     0          
H5       H      0.436010000000     0.298000000000     0.635330000000     0          
H6       H      0.433560000000     0.253840000000     0.565340000000     0          
H7       H      0.521030000000     0.278910000000     0.643970000000     0          
H8       H      0.525050000000     0.322720000000     0.714120000000     0          
Zr1      Zr     0.465390000000     0.465390000000     0.884620000000     0          
O2       O      0.515120000000     0.484880000000     0.876780000000     0          
O3       O      0.477870000000     0.448920000000     0.000000000000     0          
C14      C      0.478820000000     0.239410000000     0.543550000000     0          
O5       O      0.074940000000     0.510470000000     0.906920000000     0          
O6       O      0.042200000000     0.470000000000     0.833950000000     0          
C1       C      0.069840000000     0.489700000000     0.851670000000     0          
C2       C      0.095790000000     0.487870000000     0.806660000000     0          
C3       C      0.092410000000     0.459680000000     0.785830000000     0          
C4       C      0.115940000000     0.458020000000     0.745020000000     0          
C5       C      0.143090000000     0.484170000000     0.724280000000     0          
C6       C      0.146220000000     0.512730000000     0.745870000000     0          
C7       C      0.122690000000     0.514390000000     0.786680000000     0          
C8       C      0.167900000000     0.481650000000     0.680530000000     0          
C9       C      0.161330000000     0.455050000000     0.637260000000     0          
C10      C      0.184480000000     0.452710000000     0.596450000000     0          
C11      C      0.214200000000     0.476940000000     0.598840000000     0          
C12      C      0.220750000000     0.503570000000     0.642180000000     0          
C13      C      0.197610000000     0.505910000000     0.682990000000     0          
H1       H      0.073060000000     0.440600000000     0.800200000000     0          
H2       H      0.113510000000     0.437750000000     0.730040000000     0          
H3       H      0.165490000000     0.531940000000     0.731760000000     0          
H4       H      0.125120000000     0.534660000000     0.801660000000     0          
H5       H      0.138010000000     0.436010000000     0.635330000000     0          
H6       H      0.179720000000     0.433560000000     0.565340000000     0          
H7       H      0.242120000000     0.521030000000     0.643970000000     0          
H8       H      0.202330000000     0.525050000000     0.714120000000     0          
Zr1      Zr     0.000000000000     0.465390000000     0.884620000000     0          
O2       O      0.030240000000     0.515120000000     0.876780000000     0          
O3       O      0.028950000000     0.477870000000     0.000000000000     0          
C14      C      0.239410000000     0.478820000000     0.543550000000     0          
O5       O      0.564470000000     0.074940000000     0.906920000000     0          
O6       O      0.572200000000     0.042200000000     0.833950000000     0          
C1       C      0.580140000000     0.069840000000     0.851670000000     0          
C2       C      0.607920000000     0.095790000000     0.806660000000     0          
C3       C      0.632730000000     0.092410000000     0.785830000000     0          
C4       C      0.657920000000     0.115940000000     0.745020000000     0          
C5       C      0.658920000000     0.143090000000     0.724280000000     0          
C6       C      0.633490000000     0.146220000000     0.745870000000     0          
C7       C      0.608300000000     0.122690000000     0.786680000000     0          
C8       C      0.686250000000     0.167900000000     0.680530000000     0          
C9       C      0.706280000000     0.161330000000     0.637260000000     0          
C10      C      0.731770000000     0.184480000000     0.596450000000     0          
C11      C      0.737260000000     0.214200000000     0.598840000000     0          
C12      C      0.717180000000     0.220750000000     0.642180000000     0          
C13      C      0.691700000000     0.197610000000     0.682990000000     0          
H1       H      0.632460000000     0.073060000000     0.800200000000     0          
H2       H      0.675760000000     0.113510000000     0.730040000000     0          
H3       H      0.633550000000     0.165490000000     0.731760000000     0          
H4       H      0.590460000000     0.125120000000     0.801660000000     0          
H5       H      0.702000000000     0.138010000000     0.635330000000     0          
H6       H      0.746160000000     0.179720000000     0.565340000000     0          
H7       H      0.721090000000     0.242120000000     0.643970000000     0          
H8       H      0.677280000000     0.202330000000     0.714120000000     0          
Zr1      Zr     0.534610000000     0.000000000000     0.884620000000     0          
O2       O      0.515120000000     0.030240000000     0.876780000000     0          
O3       O      0.551080000000     0.028950000000     0.000000000000     0          
C14      C      0.760590000000     0.239410000000     0.543550000000     0          
O5       O      0.489530000000     0.564470000000     0.906920000000     0          
O6       O      0.530000000000     0.572200000000     0.833950000000     0          
C1       C      0.510300000000     0.580140000000     0.851670000000     0          
C2       C      0.512130000000     0.607920000000     0.806660000000     0          
C3       C      0.540320000000     0.632730000000     0.785830000000     0          
C4       C      0.541980000000     0.657920000000     0.745020000000     0          
C5       C      0.515830000000     0.658920000000     0.724280000000     0          
C6       C      0.487270000000     0.633490000000     0.745870000000     0          
C7       C      0.485610000000     0.608300000000     0.786680000000     0          
C8       C      0.518350000000     0.686250000000     0.680530000000     0          
C9       C      0.544950000000     0.706280000000     0.637260000000     0          
C10      C      0.547290000000     0.731770000000     0.596450000000     0          
C11      C      0.523060000000     0.737260000000     0.598840000000     0          
C12      C      0.496430000000     0.717180000000     0.642180000000     0          
C13      C      0.494090000000     0.691700000000     0.682990000000     0          
H1       H      0.559400000000     0.632460000000     0.800200000000     0          
H2       H      0.562250000000     0.675760000000     0.730040000000     0          
H3       H      0.468060000000     0.633550000000     0.731760000000     0          
H4       H      0.465340000000     0.590460000000     0.801660000000     0          
H5       H      0.563990000000     0.702000000000     0.635330000000     0          
H6       H      0.566440000000     0.746160000000     0.565340000000     0          
H7       H      0.478970000000     0.721090000000     0.643970000000     0          
H8       H      0.474950000000     0.677280000000     0.714120000000     0          
Zr1      Zr     0.534610000000     0.534610000000     0.884620000000     0          
O2       O      0.484880000000     0.515120000000     0.876780000000     0          
O3       O      0.522130000000     0.551080000000     0.000000000000     0          
C14      C      0.521180000000     0.760590000000     0.543550000000     0          
O5       O      0.489530000000     0.925060000000     0.906920000000     0          
O6       O      0.530000000000     0.957800000000     0.833950000000     0          
C1       C      0.510300000000     0.930160000000     0.851670000000     0          
C2       C      0.512130000000     0.904210000000     0.806660000000     0          
C3       C      0.540320000000     0.907590000000     0.785830000000     0          
C4       C      0.541980000000     0.884060000000     0.745020000000     0          
C5       C      0.515830000000     0.856910000000     0.724280000000     0          
C6       C      0.487270000000     0.853780000000     0.745870000000     0          
C7       C      0.485610000000     0.877310000000     0.786680000000     0          
C8       C      0.518350000000     0.832100000000     0.680530000000     0          
C9       C      0.544950000000     0.838670000000     0.637260000000     0          
C10      C      0.547290000000     0.815520000000     0.596450000000     0          
C11      C      0.523060000000     0.785800000000     0.598840000000     0          
C12      C      0.496430000000     0.779250000000     0.642180000000     0          
C13      C      0.494090000000     0.802390000000     0.682990000000     0          
H1       H      0.559400000000     0.926940000000     0.800200000000     0          
H2       H      0.562250000000     0.886490000000     0.730040000000     0          
H3       H      0.468060000000     0.834510000000     0.731760000000     0          
H4       H      0.465340000000     0.874880000000     0.801660000000     0          
H5       H      0.563990000000     0.861990000000     0.635330000000     0          
H6       H      0.566440000000     0.820280000000     0.565340000000     0          
H7       H      0.478970000000     0.757880000000     0.643970000000     0          
H8       H      0.474950000000     0.797670000000     0.714120000000     0          
O5       O      0.564470000000     0.489530000000     0.906920000000     0          
O6       O      0.572200000000     0.530000000000     0.833950000000     0          
C1       C      0.580140000000     0.510300000000     0.851670000000     0          
C2       C      0.607920000000     0.512130000000     0.806660000000     0          
C3       C      0.632730000000     0.540320000000     0.785830000000     0          
C4       C      0.657920000000     0.541980000000     0.745020000000     0          
C5       C      0.658920000000     0.515830000000     0.724280000000     0          
C6       C      0.633490000000     0.487270000000     0.745870000000     0          
C7       C      0.608300000000     0.485610000000     0.786680000000     0          
C8       C      0.686250000000     0.518350000000     0.680530000000     0          
C9       C      0.706280000000     0.544950000000     0.637260000000     0          
C10      C      0.731770000000     0.547290000000     0.596450000000     0          
C11      C      0.737260000000     0.523060000000     0.598840000000     0          
C12      C      0.717180000000     0.496430000000     0.642180000000     0          
C13      C      0.691700000000     0.494090000000     0.682990000000     0          
H1       H      0.632460000000     0.559400000000     0.800200000000     0          
H2       H      0.675760000000     0.562250000000     0.730040000000     0          
H3       H      0.633550000000     0.468060000000     0.731760000000     0          
H4       H      0.590460000000     0.465340000000     0.801660000000     0          
H5       H      0.702000000000     0.563990000000     0.635330000000     0          
H6       H      0.746160000000     0.566440000000     0.565340000000     0          
H7       H      0.721090000000     0.478970000000     0.643970000000     0          
H8       H      0.677280000000     0.474950000000     0.714120000000     0          
O5       O      0.074940000000     0.564470000000     0.906920000000     0          
O6       O      0.042200000000     0.572200000000     0.833950000000     0          
C1       C      0.069840000000     0.580140000000     0.851670000000     0          
C2       C      0.095790000000     0.607920000000     0.806660000000     0          
C3       C      0.092410000000     0.632730000000     0.785830000000     0          
C4       C      0.115940000000     0.657920000000     0.745020000000     0          
C5       C      0.143090000000     0.658920000000     0.724280000000     0          
C6       C      0.146220000000     0.633490000000     0.745870000000     0          
C7       C      0.122690000000     0.608300000000     0.786680000000     0          
C8       C      0.167900000000     0.686250000000     0.680530000000     0          
C9       C      0.161330000000     0.706280000000     0.637260000000     0          
C10      C      0.184480000000     0.731770000000     0.596450000000     0          
C11      C      0.214200000000     0.737260000000     0.598840000000     0          
C12      C      0.220750000000     0.717180000000     0.642180000000     0          
C13      C      0.197610000000     0.691700000000     0.682990000000     0          
H1       H      0.073060000000     0.632460000000     0.800200000000     0          
H2       H      0.113510000000     0.675760000000     0.730040000000     0          
H3       H      0.165490000000     0.633550000000     0.731760000000     0          
H4       H      0.125120000000     0.590460000000     0.801660000000     0          
H5       H      0.138010000000     0.702000000000     0.635330000000     0          
H6       H      0.179720000000     0.746160000000     0.565340000000     0          
H7       H      0.242120000000     0.721090000000     0.643970000000     0          
H8       H      0.202330000000     0.677280000000     0.714120000000     0          
O5       O      0.510470000000     0.074940000000     0.906920000000     0          
O6       O      0.470000000000     0.042200000000     0.833950000000     0          
C1       C      0.489700000000     0.069840000000     0.851670000000     0          
C2       C      0.487870000000     0.095790000000     0.806660000000     0          
C3       C      0.459680000000     0.092410000000     0.785830000000     0          
C4       C      0.458020000000     0.115940000000     0.745020000000     0          
C5       C      0.484170000000     0.143090000000     0.724280000000     0          
C6       C      0.512730000000     0.146220000000     0.745870000000     0          
C7       C      0.514390000000     0.122690000000     0.786680000000     0          
C8       C      0.481650000000     0.167900000000     0.680530000000     0          
C9       C      0.455050000000     0.161330000000     0.637260000000     0          
C10      C      0.452710000000     0.184480000000     0.596450000000     0          
C11      C      0.476940000000     0.214200000000     0.598840000000     0          
C12      C      0.503570000000     0.220750000000     0.642180000000     0          
C13      C      0.505910000000     0.197610000000     0.682990000000     0          
H1       H      0.440600000000     0.073060000000     0.800200000000     0          
H2       H      0.437750000000     0.113510000000     0.730040000000     0          
H3       H      0.531940000000     0.165490000000     0.731760000000     0          
H4       H      0.534660000000     0.125120000000     0.801660000000     0          
H5       H      0.436010000000     0.138010000000     0.635330000000     0          
H6       H      0.433560000000     0.179720000000     0.565340000000     0          
H7       H      0.521030000000     0.242120000000     0.643970000000     0          
H8       H      0.525050000000     0.202330000000     0.714120000000     0          
O5       O      0.435530000000     0.510470000000     0.906920000000     0          
O6       O      0.427800000000     0.470000000000     0.833950000000     0          
C1       C      0.419860000000     0.489700000000     0.851670000000     0          
C2       C      0.392080000000     0.487870000000     0.806660000000     0          
C3       C      0.367270000000     0.459680000000     0.785830000000     0          
C4       C      0.342080000000     0.458020000000     0.745020000000     0          
C5       C      0.341080000000     0.484170000000     0.724280000000     0          
C6       C      0.366510000000     0.512730000000     0.745870000000     0          
C7       C      0.391700000000     0.514390000000     0.786680000000     0          
C8       C      0.313750000000     0.481650000000     0.680530000000     0          
C9       C      0.293720000000     0.455050000000     0.637260000000     0          
C10      C      0.268230000000     0.452710000000     0.596450000000     0          
C11      C      0.262740000000     0.476940000000     0.598840000000     0          
C12      C      0.282820000000     0.503570000000     0.642180000000     0          
C13      C      0.308300000000     0.505910000000     0.682990000000     0          
H1       H      0.367540000000     0.440600000000     0.800200000000     0          
H2       H      0.324240000000     0.437750000000     0.730040000000     0          
H3       H      0.366450000000     0.531940000000     0.731760000000     0          
H4       H      0.409540000000     0.534660000000     0.801660000000     0          
H5       H      0.298000000000     0.436010000000     0.635330000000     0          
H6       H      0.253840000000     0.433560000000     0.565340000000     0          
H7       H      0.278910000000     0.521030000000     0.643970000000     0          
H8       H      0.322720000000     0.525050000000     0.714120000000     0          
O5       O      0.925060000000     0.435530000000     0.906920000000     0          
O6       O      0.957800000000     0.427800000000     0.833950000000     0          
C1       C      0.930160000000     0.419860000000     0.851670000000     0          
C2       C      0.904210000000     0.392080000000     0.806660000000     0          
C3       C      0.907590000000     0.367270000000     0.785830000000     0          
C4       C      0.884060000000     0.342080000000     0.745020000000     0          
C5       C      0.856910000000     0.341080000000     0.724280000000     0          
C6       C      0.853780000000     0.366510000000     0.745870000000     0          
C7       C      0.877310000000     0.391700000000     0.786680000000     0          
C8       C      0.832100000000     0.313750000000     0.680530000000     0          
C9       C      0.838670000000     0.293720000000     0.637260000000     0          
C10      C      0.815520000000     0.268230000000     0.596450000000     0          
C11      C      0.785800000000     0.262740000000     0.598840000000     0          
C12      C      0.779250000000     0.282820000000     0.642180000000     0          
C13      C      0.802390000000     0.308300000000     0.682990000000     0          
H1       H      0.926940000000     0.367540000000     0.800200000000     0          
H2       H      0.886490000000     0.324240000000     0.730040000000     0          
H3       H      0.834510000000     0.366450000000     0.731760000000     0          
H4       H      0.874880000000     0.409540000000     0.801660000000     0          
H5       H      0.861990000000     0.298000000000     0.635330000000     0          
H6       H      0.820280000000     0.253840000000     0.565340000000     0          
H7       H      0.757880000000     0.278910000000     0.643970000000     0          
H8       H      0.797670000000     0.322720000000     0.714120000000     0          
O5       O      0.074940000000     0.510470000000     0.093080000000     0          
O6       O      0.042200000000     0.470000000000     0.166050000000     0          
C1       C      0.069840000000     0.489700000000     0.148330000000     0          
C2       C      0.095790000000     0.487870000000     0.193340000000     0          
C3       C      0.092410000000     0.459680000000     0.214170000000     0          
C4       C      0.115940000000     0.458020000000     0.254980000000     0          
C5       C      0.143090000000     0.484170000000     0.275720000000     0          
C6       C      0.146220000000     0.512730000000     0.254130000000     0          
C7       C      0.122690000000     0.514390000000     0.213320000000     0          
C8       C      0.167900000000     0.481650000000     0.319470000000     0          
C9       C      0.161330000000     0.455050000000     0.362740000000     0          
C10      C      0.184480000000     0.452710000000     0.403550000000     0          
C11      C      0.214200000000     0.476940000000     0.401160000000     0          
C12      C      0.220750000000     0.503570000000     0.357820000000     0          
C13      C      0.197610000000     0.505910000000     0.317010000000     0          
H1       H      0.073060000000     0.440600000000     0.199800000000     0          
H2       H      0.113510000000     0.437750000000     0.269960000000     0          
H3       H      0.165490000000     0.531940000000     0.268240000000     0          
H4       H      0.125120000000     0.534660000000     0.198340000000     0          
H5       H      0.138010000000     0.436010000000     0.364670000000     0          
H6       H      0.179720000000     0.433560000000     0.434660000000     0          
H7       H      0.242120000000     0.521030000000     0.356030000000     0          
H8       H      0.202330000000     0.525050000000     0.285880000000     0          
O5       O      0.564470000000     0.074940000000     0.093080000000     0          
O6       O      0.572200000000     0.042200000000     0.166050000000     0          
C1       C      0.580140000000     0.069840000000     0.148330000000     0          
C2       C      0.607920000000     0.095790000000     0.193340000000     0          
C3       C      0.632730000000     0.092410000000     0.214170000000     0          
C4       C      0.657920000000     0.115940000000     0.254980000000     0          
C5       C      0.658920000000     0.143090000000     0.275720000000     0          
C6       C      0.633490000000     0.146220000000     0.254130000000     0          
C7       C      0.608300000000     0.122690000000     0.213320000000     0          
C8       C      0.686250000000     0.167900000000     0.319470000000     0          
C9       C      0.706280000000     0.161330000000     0.362740000000     0          
C10      C      0.731770000000     0.184480000000     0.403550000000     0          
C11      C      0.737260000000     0.214200000000     0.401160000000     0          
C12      C      0.717180000000     0.220750000000     0.357820000000     0          
C13      C      0.691700000000     0.197610000000     0.317010000000     0          
H1       H      0.632460000000     0.073060000000     0.199800000000     0          
H2       H      0.675760000000     0.113510000000     0.269960000000     0          
H3       H      0.633550000000     0.165490000000     0.268240000000     0          
H4       H      0.590460000000     0.125120000000     0.198340000000     0          
H5       H      0.702000000000     0.138010000000     0.364670000000     0          
H6       H      0.746160000000     0.179720000000     0.434660000000     0          
H7       H      0.721090000000     0.242120000000     0.356030000000     0          
H8       H      0.677280000000     0.202330000000     0.285880000000     0          
O5       O      0.489530000000     0.564470000000     0.093080000000     0          
O6       O      0.530000000000     0.572200000000     0.166050000000     0          
C1       C      0.510300000000     0.580140000000     0.148330000000     0          
C2       C      0.512130000000     0.607920000000     0.193340000000     0          
C3       C      0.540320000000     0.632730000000     0.214170000000     0          
C4       C      0.541980000000     0.657920000000     0.254980000000     0          
C5       C      0.515830000000     0.658920000000     0.275720000000     0          
C6       C      0.487270000000     0.633490000000     0.254130000000     0          
C7       C      0.485610000000     0.608300000000     0.213320000000     0          
C8       C      0.518350000000     0.686250000000     0.319470000000     0          
C9       C      0.544950000000     0.706280000000     0.362740000000     0          
C10      C      0.547290000000     0.731770000000     0.403550000000     0          
C11      C      0.523060000000     0.737260000000     0.401160000000     0          
C12      C      0.496430000000     0.717180000000     0.357820000000     0          
C13      C      0.494090000000     0.691700000000     0.317010000000     0          
H1       H      0.559400000000     0.632460000000     0.199800000000     0          
H2       H      0.562250000000     0.675760000000     0.269960000000     0          
H3       H      0.468060000000     0.633550000000     0.268240000000     0          
H4       H      0.465340000000     0.590460000000     0.198340000000     0          
H5       H      0.563990000000     0.702000000000     0.364670000000     0          
H6       H      0.566440000000     0.746160000000     0.434660000000     0          
H7       H      0.478970000000     0.721090000000     0.356030000000     0          
H8       H      0.474950000000     0.677280000000     0.285880000000     0          
O5       O      0.925060000000     0.489530000000     0.093080000000     0          
O6       O      0.957800000000     0.530000000000     0.166050000000     0          
C1       C      0.930160000000     0.510300000000     0.148330000000     0          
C2       C      0.904210000000     0.512130000000     0.193340000000     0          
C3       C      0.907590000000     0.540320000000     0.214170000000     0          
C4       C      0.884060000000     0.541980000000     0.254980000000     0          
C5       C      0.856910000000     0.515830000000     0.275720000000     0          
C6       C      0.853780000000     0.487270000000     0.254130000000     0          
C7       C      0.877310000000     0.485610000000     0.213320000000     0          
C8       C      0.832100000000     0.518350000000     0.319470000000     0          
C9       C      0.838670000000     0.544950000000     0.362740000000     0          
C10      C      0.815520000000     0.547290000000     0.403550000000     0          
C11      C      0.785800000000     0.523060000000     0.401160000000     0          
C12      C      0.779250000000     0.496430000000     0.357820000000     0          
C13      C      0.802390000000     0.494090000000     0.317010000000     0          
H1       H      0.926940000000     0.559400000000     0.199800000000     0          
H2       H      0.886490000000     0.562250000000     0.269960000000     0          
H3       H      0.834510000000     0.468060000000     0.268240000000     0          
H4       H      0.874880000000     0.465340000000     0.198340000000     0          
H5       H      0.861990000000     0.563990000000     0.364670000000     0          
H6       H      0.820280000000     0.566440000000     0.434660000000     0          
H7       H      0.757880000000     0.478970000000     0.356030000000     0          
H8       H      0.797670000000     0.474950000000     0.285880000000     0          
O5       O      0.435530000000     0.925060000000     0.093080000000     0          
O6       O      0.427800000000     0.957800000000     0.166050000000     0          
C1       C      0.419860000000     0.930160000000     0.148330000000     0          
C2       C      0.392080000000     0.904210000000     0.193340000000     0          
C3       C      0.367270000000     0.907590000000     0.214170000000     0          
C4       C      0.342080000000     0.884060000000     0.254980000000     0          
C5       C      0.341080000000     0.856910000000     0.275720000000     0          
C6       C      0.366510000000     0.853780000000     0.254130000000     0          
C7       C      0.391700000000     0.877310000000     0.213320000000     0          
C8       C      0.313750000000     0.832100000000     0.319470000000     0          
C9       C      0.293720000000     0.838670000000     0.362740000000     0          
C10      C      0.268230000000     0.815520000000     0.403550000000     0          
C11      C      0.262740000000     0.785800000000     0.401160000000     0          
C12      C      0.282820000000     0.779250000000     0.357820000000     0          
C13      C      0.308300000000     0.802390000000     0.317010000000     0          
H1       H      0.367540000000     0.926940000000     0.199800000000     0          
H2       H      0.324240000000     0.886490000000     0.269960000000     0          
H3       H      0.366450000000     0.834510000000     0.268240000000     0          
H4       H      0.409540000000     0.874880000000     0.198340000000     0          
H5       H      0.298000000000     0.861990000000     0.364670000000     0          
H6       H      0.253840000000     0.820280000000     0.434660000000     0          
H7       H      0.278910000000     0.757880000000     0.356030000000     0          
H8       H      0.322720000000     0.797670000000     0.285880000000     0          
O5       O      0.510470000000     0.435530000000     0.093080000000     0          
O6       O      0.470000000000     0.427800000000     0.166050000000     0          
C1       C      0.489700000000     0.419860000000     0.148330000000     0          
C2       C      0.487870000000     0.392080000000     0.193340000000     0          
C3       C      0.459680000000     0.367270000000     0.214170000000     0          
C4       C      0.458020000000     0.342080000000     0.254980000000     0          
C5       C      0.484170000000     0.341080000000     0.275720000000     0          
C6       C      0.512730000000     0.366510000000     0.254130000000     0          
C7       C      0.514390000000     0.391700000000     0.213320000000     0          
C8       C      0.481650000000     0.313750000000     0.319470000000     0          
C9       C      0.455050000000     0.293720000000     0.362740000000     0          
C10      C      0.452710000000     0.268230000000     0.403550000000     0          
C11      C      0.476940000000     0.262740000000     0.401160000000     0          
C12      C      0.503570000000     0.282820000000     0.357820000000     0          
C13      C      0.505910000000     0.308300000000     0.317010000000     0          
H1       H      0.440600000000     0.367540000000     0.199800000000     0          
H2       H      0.437750000000     0.324240000000     0.269960000000     0          
H3       H      0.531940000000     0.366450000000     0.268240000000     0          
H4       H      0.534660000000     0.409540000000     0.198340000000     0          
H5       H      0.436010000000     0.298000000000     0.364670000000     0          
H6       H      0.433560000000     0.253840000000     0.434660000000     0          
H7       H      0.521030000000     0.278910000000     0.356030000000     0          
H8       H      0.525050000000     0.322720000000     0.285880000000     0          


