data_CECNAC

_audit_creation_method RASPA-1.0
_audit_creation_date 2020-11-2
_audit_author_name 'Rocio Bueno-Perez'

_cell_length_a    26.221
_cell_length_b    26.221
_cell_length_c    60.059
_cell_angle_alpha 90
_cell_angle_beta  90
_cell_angle_gamma 120
_cell_volume      35760.8

_symmetry_cell_setting          triclinic
_symmetry_space_group_name_Hall 'P 1'
_symmetry_space_group_name_H-M  'P 1'
_symmetry_Int_Tables_number     1

_symmetry_equiv_pos_as_xyz 'x,y,z'

loop_
_atom_site_label
_atom_site_type_symbol
_atom_site_fract_x
_atom_site_fract_y
_atom_site_fract_z
_atom_site_charge
Zr1      Zr     0.988690000000     0.558110000000     0.108160000000     0          
O2       O      0.770200000000     0.341800000000     0.982560000000     0          
O3       O      0.008300000000     0.562800000000     0.142470000000     0          
H4       H      0.036100000000     0.596200000000     0.150700000000     0          
O5       O      0.941400000000     0.513600000000     0.078200000000     0          
O6       O      0.881400000000     0.384800000000     0.149700000000     0          
O7       O      0.907200000000     0.355100000000     0.119220000000     0          
C8       C      0.869100000000     0.481200000000     0.040940000000     0          
C9       C      0.772700000000     0.276000000000     0.927540000000     0          
H10      H      0.787900000000     0.302300000000     0.915300000000     0          
C11      C      0.870400000000     0.348100000000     0.134740000000     0          
C12      C      0.003100000000     0.526700000000     0.190260000000     0          
H13      H      0.037500000000     0.564400000000     0.189300000000     0          
C14      C      0.814000000000     0.293300000000     0.134870000000     0          
C15      C      0.802100000000     0.249900000000     0.118200000000     0          
C16      C      0.945700000000     0.517400000000     0.191770000000     0          
H17      H      0.933800000000     0.546200000000     0.192500000000     0          
C18      C      0.833900000000     0.462400000000     0.021590000000     0          
C19      C      0.995000000000     0.652800000000     0.095400000000     0          
H20      H      0.959400000000     0.654200000000     0.095000000000     0          
C21      C      0.800100000000     0.284800000000     0.948070000000     0          
H22      H      0.837100000000     0.317000000000     0.952500000000     0          
C23      C      0.076500000000     0.659200000000     0.107100000000     0          
H24      H      0.108100000000     0.664900000000     0.116500000000     0          
C25      C      0.771200000000     0.280700000000     0.151000000000     0          
C26      C      0.033500000000     0.667700000000     0.112500000000     0          
H27      H      0.029500000000     0.682300000000     0.126500000000     0          
C28      C      0.068400000000     0.640500000000     0.085500000000     0          
H29      H      0.094400000000     0.632800000000     0.077100000000     0          
C30      C      0.019500000000     0.635100000000     0.078600000000     0          
H31      H      0.002800000000     0.621200000000     0.064300000000     0          
H32      H      0.910940000000     0.408060000000     0.561910000000     0          
H33      H      0.798350000000     0.352460000000     0.502060000000     0          
H34      H      0.859830000000     0.550110000000     0.618390000000     0          
H35      H      0.824800000000     0.484440000000     0.652840000000     0          
Zr36     Zr     0.655360000000     0.891440000000     0.441490000000     0          
O37      O      0.436870000000     0.675130000000     0.315890000000     0          
O38      O      0.674970000000     0.896130000000     0.475800000000     0          
H39      H      0.702770000000     0.929530000000     0.484030000000     0          
O40      O      0.608070000000     0.846930000000     0.411530000000     0          
O41      O      0.548070000000     0.718130000000     0.483030000000     0          
O42      O      0.573870000000     0.688430000000     0.452550000000     0          
C43      C      0.535770000000     0.814530000000     0.374270000000     0          
C44      C      0.439370000000     0.609330000000     0.260870000000     0          
H45      H      0.454570000000     0.635630000000     0.248630000000     0          
C46      C      0.537070000000     0.681430000000     0.468070000000     0          
C47      C      0.669770000000     0.860030000000     0.523590000000     0          
H48      H      0.704170000000     0.897730000000     0.522630000000     0          
C49      C      0.480670000000     0.626630000000     0.468200000000     0          
C50      C      0.468770000000     0.583230000000     0.451530000000     0          
C51      C      0.612370000000     0.850730000000     0.525100000000     0          
H52      H      0.600470000000     0.879530000000     0.525830000000     0          
C53      C      0.500570000000     0.795730000000     0.354920000000     0          
C54      C      0.661670000000     0.986130000000     0.428730000000     0          
H55      H      0.626070000000     0.987530000000     0.428330000000     0          
C56      C      0.466770000000     0.618130000000     0.281400000000     0          
H57      H      0.503770000000     0.650330000000     0.285830000000     0          
C58      C      0.743170000000     0.992530000000     0.440430000000     0          
H59      H      0.774770000000     0.998230000000     0.449830000000     0          
C60      C      0.437870000000     0.614030000000     0.484330000000     0          
C61      C      0.700170000000     0.001030000000     0.445830000000     0          
H62      H      0.696170000000     0.015630000000     0.459830000000     0          
C63      C      0.735070000000     0.973830000000     0.418830000000     0          
H64      H      0.761070000000     0.966130000000     0.410430000000     0          
C65      C      0.686170000000     0.968430000000     0.411930000000     0          
H66      H      0.669470000000     0.954530000000     0.397630000000     0          
H67      H      0.577600000000     0.741400000000     0.895240000000     0          
H68      H      0.465020000000     0.685790000000     0.835390000000     0          
H69      H      0.526490000000     0.883450000000     0.951720000000     0          
H70      H      0.491460000000     0.817770000000     0.986180000000     0          
Zr71     Zr     0.322020000000     0.224780000000     0.774830000000     0          
O72      O      0.103530000000     0.008470000000     0.649230000000     0          
O73      O      0.341630000000     0.229470000000     0.809140000000     0          
H74      H      0.369430000000     0.262870000000     0.817370000000     0          
O75      O      0.274730000000     0.180270000000     0.744870000000     0          
O76      O      0.214730000000     0.051470000000     0.816370000000     0          
O77      O      0.240530000000     0.021770000000     0.785890000000     0          
C78      C      0.202430000000     0.147870000000     0.707610000000     0          
C79      C      0.106030000000     0.942670000000     0.594210000000     0          
H80      H      0.121230000000     0.968970000000     0.581970000000     0          
C81      C      0.203730000000     0.014770000000     0.801410000000     0          
C82      C      0.336430000000     0.193370000000     0.856930000000     0          
H83      H      0.370830000000     0.231070000000     0.855970000000     0          
C84      C      0.147330000000     0.959970000000     0.801540000000     0          
C85      C      0.135430000000     0.916570000000     0.784870000000     0          
C86      C      0.279030000000     0.184070000000     0.858440000000     0          
H87      H      0.267130000000     0.212870000000     0.859170000000     0          
C88      C      0.167230000000     0.129070000000     0.688260000000     0          
C89      C      0.328330000000     0.319470000000     0.762070000000     0          
H90      H      0.292730000000     0.320870000000     0.761670000000     0          
C91      C      0.133430000000     0.951470000000     0.614740000000     0          
H92      H      0.170430000000     0.983670000000     0.619170000000     0          
C93      C      0.409830000000     0.325870000000     0.773770000000     0          
H94      H      0.441430000000     0.331570000000     0.783170000000     0          
C95      C      0.104530000000     0.947370000000     0.817670000000     0          
C96      C      0.366830000000     0.334370000000     0.779170000000     0          
H97      H      0.362830000000     0.348970000000     0.793170000000     0          
C98      C      0.401730000000     0.307170000000     0.752170000000     0          
H99      H      0.427730000000     0.299470000000     0.743770000000     0          
C100     C      0.352830000000     0.301770000000     0.745270000000     0          
H101     H      0.336130000000     0.287870000000     0.730970000000     0          
H102     H      0.244270000000     0.074730000000     0.228580000000     0          
H103     H      0.131680000000     0.019120000000     0.168720000000     0          
H104     H      0.193160000000     0.216780000000     0.285050000000     0          
H105     H      0.158130000000     0.151100000000     0.319510000000     0          
Zr106    Zr     0.441890000000     0.430580000000     0.108160000000     0          
O107     O      0.658200000000     0.428400000000     0.982560000000     0          
O108     O      0.437200000000     0.445500000000     0.142470000000     0          
H109     H      0.403800000000     0.439900000000     0.150700000000     0          
O110     O      0.486400000000     0.427800000000     0.078200000000     0          
O111     O      0.615200000000     0.496600000000     0.149700000000     0          
O112     O      0.644900000000     0.552100000000     0.119220000000     0          
C113     C      0.518800000000     0.387900000000     0.040940000000     0          
C114     C      0.724000000000     0.496700000000     0.927540000000     0          
H115     H      0.697700000000     0.485600000000     0.915300000000     0          
C116     C      0.651900000000     0.522300000000     0.134740000000     0          
C117     C      0.473300000000     0.476400000000     0.190260000000     0          
H118     H      0.435600000000     0.473100000000     0.189300000000     0          
C119     C      0.706700000000     0.520700000000     0.134870000000     0          
C120     C      0.750100000000     0.552200000000     0.118200000000     0          
C121     C      0.482600000000     0.428300000000     0.191770000000     0          
H122     H      0.453800000000     0.387600000000     0.192500000000     0          
C123     C      0.537600000000     0.371500000000     0.021590000000     0          
C124     C      0.347200000000     0.342200000000     0.095400000000     0          
H125     H      0.345800000000     0.305200000000     0.095000000000     0          
C126     C      0.715200000000     0.515300000000     0.948070000000     0          
H127     H      0.683000000000     0.520100000000     0.952500000000     0          
C128     C      0.340800000000     0.417300000000     0.107100000000     0          
H129     H      0.335100000000     0.443200000000     0.116500000000     0          
C130     C      0.719300000000     0.490500000000     0.151000000000     0          
C131     C      0.332300000000     0.365800000000     0.112500000000     0          
H132     H      0.317700000000     0.347200000000     0.126500000000     0          
C133     C      0.359500000000     0.427900000000     0.085500000000     0          
H134     H      0.367200000000     0.461600000000     0.077100000000     0          
C135     C      0.364900000000     0.384400000000     0.078600000000     0          
H136     H      0.378800000000     0.381600000000     0.064300000000     0          
H137     H      0.591940000000     0.502870000000     0.561910000000     0          
H138     H      0.647540000000     0.445890000000     0.502060000000     0          
H139     H      0.449890000000     0.309710000000     0.618390000000     0          
H140     H      0.515560000000     0.340360000000     0.652840000000     0          
Zr141    Zr     0.108560000000     0.763910000000     0.441490000000     0          
O142     O      0.324870000000     0.761730000000     0.315890000000     0          
O143     O      0.103870000000     0.778830000000     0.475800000000     0          
H144     H      0.070470000000     0.773230000000     0.484030000000     0          
O145     O      0.153070000000     0.761130000000     0.411530000000     0          
O146     O      0.281870000000     0.829930000000     0.483030000000     0          
O147     O      0.311570000000     0.885430000000     0.452550000000     0          
C148     C      0.185470000000     0.721230000000     0.374270000000     0          
C149     C      0.390670000000     0.830030000000     0.260870000000     0          
H150     H      0.364370000000     0.818930000000     0.248630000000     0          
C151     C      0.318570000000     0.855630000000     0.468070000000     0          
C152     C      0.139970000000     0.809730000000     0.523590000000     0          
H153     H      0.102270000000     0.806430000000     0.522630000000     0          
C154     C      0.373370000000     0.854030000000     0.468200000000     0          
C155     C      0.416770000000     0.885530000000     0.451530000000     0          
C156     C      0.149270000000     0.761630000000     0.525100000000     0          
H157     H      0.120470000000     0.720930000000     0.525830000000     0          
C158     C      0.204270000000     0.704830000000     0.354920000000     0          
C159     C      0.013870000000     0.675530000000     0.428730000000     0          
H160     H      0.012470000000     0.638530000000     0.428330000000     0          
C161     C      0.381870000000     0.848630000000     0.281400000000     0          
H162     H      0.349670000000     0.853430000000     0.285830000000     0          
C163     C      0.007470000000     0.750630000000     0.440430000000     0          
H164     H      0.001770000000     0.776530000000     0.449830000000     0          
C165     C      0.385970000000     0.823830000000     0.484330000000     0          
C166     C      0.998970000000     0.699130000000     0.445830000000     0          
H167     H      0.984370000000     0.680530000000     0.459830000000     0          
C168     C      0.026170000000     0.761230000000     0.418830000000     0          
H169     H      0.033870000000     0.794930000000     0.410430000000     0          
C170     C      0.031570000000     0.717730000000     0.411930000000     0          
H171     H      0.045470000000     0.714930000000     0.397630000000     0          
H172     H      0.258600000000     0.836210000000     0.895240000000     0          
H173     H      0.314210000000     0.779230000000     0.835390000000     0          
H174     H      0.116550000000     0.643050000000     0.951720000000     0          
H175     H      0.182230000000     0.673700000000     0.986180000000     0          
Zr176    Zr     0.775220000000     0.097250000000     0.774830000000     0          
O177     O      0.991530000000     0.095070000000     0.649230000000     0          
O178     O      0.770530000000     0.112170000000     0.809140000000     0          
H179     H      0.737130000000     0.106570000000     0.817370000000     0          
O180     O      0.819730000000     0.094470000000     0.744870000000     0          
O181     O      0.948530000000     0.163270000000     0.816370000000     0          
O182     O      0.978230000000     0.218770000000     0.785890000000     0          
C183     C      0.852130000000     0.054570000000     0.707610000000     0          
C184     C      0.057330000000     0.163370000000     0.594210000000     0          
H185     H      0.031030000000     0.152270000000     0.581970000000     0          
C186     C      0.985230000000     0.188970000000     0.801410000000     0          
C187     C      0.806630000000     0.143070000000     0.856930000000     0          
H188     H      0.768930000000     0.139770000000     0.855970000000     0          
C189     C      0.040030000000     0.187370000000     0.801540000000     0          
C190     C      0.083430000000     0.218870000000     0.784870000000     0          
C191     C      0.815930000000     0.094970000000     0.858440000000     0          
H192     H      0.787130000000     0.054270000000     0.859170000000     0          
C193     C      0.870930000000     0.038170000000     0.688260000000     0          
C194     C      0.680530000000     0.008870000000     0.762070000000     0          
H195     H      0.679130000000     0.971870000000     0.761670000000     0          
C196     C      0.048530000000     0.181970000000     0.614740000000     0          
H197     H      0.016330000000     0.186770000000     0.619170000000     0          
C198     C      0.674130000000     0.083970000000     0.773770000000     0          
H199     H      0.668430000000     0.109870000000     0.783170000000     0          
C200     C      0.052630000000     0.157170000000     0.817670000000     0          
C201     C      0.665630000000     0.032470000000     0.779170000000     0          
H202     H      0.651030000000     0.013870000000     0.793170000000     0          
C203     C      0.692830000000     0.094570000000     0.752170000000     0          
H204     H      0.700530000000     0.128270000000     0.743770000000     0          
C205     C      0.698230000000     0.051070000000     0.745270000000     0          
H206     H      0.712130000000     0.048270000000     0.730970000000     0          
H207     H      0.925270000000     0.169540000000     0.228580000000     0          
H208     H      0.980880000000     0.112560000000     0.168720000000     0          
H209     H      0.783220000000     0.976380000000     0.285050000000     0          
H210     H      0.848900000000     0.007030000000     0.319510000000     0          
Zr211    Zr     0.569420000000     0.011310000000     0.108160000000     0          
O212     O      0.571600000000     0.229800000000     0.982560000000     0          
O213     O      0.554500000000     0.991700000000     0.142470000000     0          
H214     H      0.560100000000     0.963900000000     0.150700000000     0          
O215     O      0.572200000000     0.058600000000     0.078200000000     0          
O216     O      0.503400000000     0.118600000000     0.149700000000     0          
O217     O      0.447900000000     0.092800000000     0.119220000000     0          
C218     C      0.612100000000     0.130900000000     0.040940000000     0          
C219     C      0.503300000000     0.227300000000     0.927540000000     0          
H220     H      0.514400000000     0.212100000000     0.915300000000     0          
C221     C      0.477700000000     0.129600000000     0.134740000000     0          
C222     C      0.523600000000     0.996900000000     0.190260000000     0          
H223     H      0.526900000000     0.962500000000     0.189300000000     0          
C224     C      0.479300000000     0.186000000000     0.134870000000     0          
C225     C      0.447800000000     0.197900000000     0.118200000000     0          
C226     C      0.571700000000     0.054300000000     0.191770000000     0          
H227     H      0.612400000000     0.066200000000     0.192500000000     0          
C228     C      0.628500000000     0.166100000000     0.021590000000     0          
C229     C      0.657800000000     0.005000000000     0.095400000000     0          
H230     H      0.694800000000     0.040600000000     0.095000000000     0          
C231     C      0.484700000000     0.199900000000     0.948070000000     0          
H232     H      0.479900000000     0.162900000000     0.952500000000     0          
C233     C      0.582700000000     0.923500000000     0.107100000000     0          
H234     H      0.556800000000     0.891900000000     0.116500000000     0          
C235     C      0.509500000000     0.228800000000     0.151000000000     0          
C236     C      0.634200000000     0.966500000000     0.112500000000     0          
H237     H      0.652800000000     0.970500000000     0.126500000000     0          
C238     C      0.572100000000     0.931600000000     0.085500000000     0          
H239     H      0.538400000000     0.905600000000     0.077100000000     0          
C240     C      0.615600000000     0.980500000000     0.078600000000     0          
H241     H      0.618400000000     0.997200000000     0.064300000000     0          
H242     H      0.497130000000     0.089060000000     0.561910000000     0          
H243     H      0.554110000000     0.201650000000     0.502060000000     0          
H244     H      0.690290000000     0.140170000000     0.618390000000     0          
H245     H      0.659640000000     0.175200000000     0.652840000000     0          
Zr246    Zr     0.236090000000     0.344640000000     0.441490000000     0          
O247     O      0.238270000000     0.563130000000     0.315890000000     0          
O248     O      0.221170000000     0.325030000000     0.475800000000     0          
H249     H      0.226770000000     0.297230000000     0.484030000000     0          
O250     O      0.238870000000     0.391930000000     0.411530000000     0          
O251     O      0.170070000000     0.451930000000     0.483030000000     0          
O252     O      0.114570000000     0.426130000000     0.452550000000     0          
C253     C      0.278770000000     0.464230000000     0.374270000000     0          
C254     C      0.169970000000     0.560630000000     0.260870000000     0          
H255     H      0.181070000000     0.545430000000     0.248630000000     0          
C256     C      0.144370000000     0.462930000000     0.468070000000     0          
C257     C      0.190270000000     0.330230000000     0.523590000000     0          
H258     H      0.193570000000     0.295830000000     0.522630000000     0          
C259     C      0.145970000000     0.519330000000     0.468200000000     0          
C260     C      0.114470000000     0.531230000000     0.451530000000     0          
C261     C      0.238370000000     0.387630000000     0.525100000000     0          
H262     H      0.279070000000     0.399530000000     0.525830000000     0          
C263     C      0.295170000000     0.499430000000     0.354920000000     0          
C264     C      0.324470000000     0.338330000000     0.428730000000     0          
H265     H      0.361470000000     0.373930000000     0.428330000000     0          
C266     C      0.151370000000     0.533230000000     0.281400000000     0          
H267     H      0.146570000000     0.496230000000     0.285830000000     0          
C268     C      0.249370000000     0.256830000000     0.440430000000     0          
H269     H      0.223470000000     0.225230000000     0.449830000000     0          
C270     C      0.176170000000     0.562130000000     0.484330000000     0          
C271     C      0.300870000000     0.299830000000     0.445830000000     0          
H272     H      0.319470000000     0.303830000000     0.459830000000     0          
C273     C      0.238770000000     0.264930000000     0.418830000000     0          
H274     H      0.205070000000     0.238930000000     0.410430000000     0          
C275     C      0.282270000000     0.313830000000     0.411930000000     0          
H276     H      0.285070000000     0.330530000000     0.397630000000     0          
H277     H      0.163790000000     0.422400000000     0.895240000000     0          
H278     H      0.220770000000     0.534980000000     0.835390000000     0          
H279     H      0.356950000000     0.473510000000     0.951720000000     0          
H280     H      0.326300000000     0.508540000000     0.986180000000     0          
Zr281    Zr     0.902750000000     0.677980000000     0.774830000000     0          
O282     O      0.904930000000     0.896470000000     0.649230000000     0          
O283     O      0.887830000000     0.658370000000     0.809140000000     0          
H284     H      0.893430000000     0.630570000000     0.817370000000     0          
O285     O      0.905530000000     0.725270000000     0.744870000000     0          
O286     O      0.836730000000     0.785270000000     0.816370000000     0          
O287     O      0.781230000000     0.759470000000     0.785890000000     0          
C288     C      0.945430000000     0.797570000000     0.707610000000     0          
C289     C      0.836630000000     0.893970000000     0.594210000000     0          
H290     H      0.847730000000     0.878770000000     0.581970000000     0          
C291     C      0.811030000000     0.796270000000     0.801410000000     0          
C292     C      0.856930000000     0.663570000000     0.856930000000     0          
H293     H      0.860230000000     0.629170000000     0.855970000000     0          
C294     C      0.812630000000     0.852670000000     0.801540000000     0          
C295     C      0.781130000000     0.864570000000     0.784870000000     0          
C296     C      0.905030000000     0.720970000000     0.858440000000     0          
H297     H      0.945730000000     0.732870000000     0.859170000000     0          
C298     C      0.961830000000     0.832770000000     0.688260000000     0          
C299     C      0.991130000000     0.671670000000     0.762070000000     0          
H300     H      0.028130000000     0.707270000000     0.761670000000     0          
C301     C      0.818030000000     0.866570000000     0.614740000000     0          
H302     H      0.813230000000     0.829570000000     0.619170000000     0          
C303     C      0.916030000000     0.590170000000     0.773770000000     0          
H304     H      0.890130000000     0.558570000000     0.783170000000     0          
C305     C      0.842830000000     0.895470000000     0.817670000000     0          
C306     C      0.967530000000     0.633170000000     0.779170000000     0          
H307     H      0.986130000000     0.637170000000     0.793170000000     0          
C308     C      0.905430000000     0.598270000000     0.752170000000     0          
H309     H      0.871730000000     0.572270000000     0.743770000000     0          
C310     C      0.948930000000     0.647170000000     0.745270000000     0          
H311     H      0.951730000000     0.663870000000     0.730970000000     0          
H312     H      0.830460000000     0.755730000000     0.228580000000     0          
H313     H      0.887440000000     0.868320000000     0.168720000000     0          
H314     H      0.023620000000     0.806840000000     0.285050000000     0          
H315     H      0.992970000000     0.841870000000     0.319510000000     0          
Zr316    Zr     0.558110000000     0.988690000000     0.891840000000     0          
O317     O      0.341800000000     0.770200000000     0.017440000000     0          
O318     O      0.562800000000     0.008300000000     0.857530000000     0          
H319     H      0.596200000000     0.036100000000     0.849300000000     0          
O320     O      0.513600000000     0.941400000000     0.921800000000     0          
O321     O      0.384800000000     0.881400000000     0.850300000000     0          
O322     O      0.355100000000     0.907200000000     0.880780000000     0          
C323     C      0.481200000000     0.869100000000     0.959060000000     0          
C324     C      0.276000000000     0.772700000000     0.072460000000     0          
H325     H      0.302300000000     0.787900000000     0.084700000000     0          
C326     C      0.348100000000     0.870400000000     0.865260000000     0          
C327     C      0.526700000000     0.003100000000     0.809740000000     0          
H328     H      0.564400000000     0.037500000000     0.810700000000     0          
C329     C      0.293300000000     0.814000000000     0.865130000000     0          
C330     C      0.249900000000     0.802100000000     0.881800000000     0          
C331     C      0.517400000000     0.945700000000     0.808230000000     0          
H332     H      0.546200000000     0.933800000000     0.807500000000     0          
C333     C      0.462400000000     0.833900000000     0.978410000000     0          
C334     C      0.652800000000     0.995000000000     0.904600000000     0          
H335     H      0.654200000000     0.959400000000     0.905000000000     0          
C336     C      0.284800000000     0.800100000000     0.051930000000     0          
H337     H      0.317000000000     0.837100000000     0.047500000000     0          
C338     C      0.659200000000     0.076500000000     0.892900000000     0          
H339     H      0.664900000000     0.108100000000     0.883500000000     0          
C340     C      0.280700000000     0.771200000000     0.849000000000     0          
C341     C      0.667700000000     0.033500000000     0.887500000000     0          
H342     H      0.682300000000     0.029500000000     0.873500000000     0          
C343     C      0.640500000000     0.068400000000     0.914500000000     0          
H344     H      0.632800000000     0.094400000000     0.922900000000     0          
C345     C      0.635100000000     0.019500000000     0.921400000000     0          
H346     H      0.621200000000     0.002800000000     0.935700000000     0          
H347     H      0.408060000000     0.910940000000     0.438090000000     0          
H348     H      0.352460000000     0.798350000000     0.497940000000     0          
H349     H      0.550110000000     0.859830000000     0.381610000000     0          
H350     H      0.484440000000     0.824800000000     0.347160000000     0          
Zr351    Zr     0.224780000000     0.322020000000     0.225170000000     0          
O352     O      0.008470000000     0.103530000000     0.350770000000     0          
O353     O      0.229470000000     0.341630000000     0.190860000000     0          
H354     H      0.262870000000     0.369430000000     0.182630000000     0          
O355     O      0.180270000000     0.274730000000     0.255130000000     0          
O356     O      0.051470000000     0.214730000000     0.183630000000     0          
O357     O      0.021770000000     0.240530000000     0.214110000000     0          
C358     C      0.147870000000     0.202430000000     0.292390000000     0          
C359     C      0.942670000000     0.106030000000     0.405790000000     0          
H360     H      0.968970000000     0.121230000000     0.418030000000     0          
C361     C      0.014770000000     0.203730000000     0.198590000000     0          
C362     C      0.193370000000     0.336430000000     0.143070000000     0          
H363     H      0.231070000000     0.370830000000     0.144030000000     0          
C364     C      0.959970000000     0.147330000000     0.198460000000     0          
C365     C      0.916570000000     0.135430000000     0.215130000000     0          
C366     C      0.184070000000     0.279030000000     0.141560000000     0          
H367     H      0.212870000000     0.267130000000     0.140830000000     0          
C368     C      0.129070000000     0.167230000000     0.311740000000     0          
C369     C      0.319470000000     0.328330000000     0.237930000000     0          
H370     H      0.320870000000     0.292730000000     0.238330000000     0          
C371     C      0.951470000000     0.133430000000     0.385260000000     0          
H372     H      0.983670000000     0.170430000000     0.380830000000     0          
C373     C      0.325870000000     0.409830000000     0.226230000000     0          
H374     H      0.331570000000     0.441430000000     0.216830000000     0          
C375     C      0.947370000000     0.104530000000     0.182330000000     0          
C376     C      0.334370000000     0.366830000000     0.220830000000     0          
H377     H      0.348970000000     0.362830000000     0.206830000000     0          
C378     C      0.307170000000     0.401730000000     0.247830000000     0          
H379     H      0.299470000000     0.427730000000     0.256230000000     0          
C380     C      0.301770000000     0.352830000000     0.254730000000     0          
H381     H      0.287870000000     0.336130000000     0.269030000000     0          
H382     H      0.074730000000     0.244270000000     0.771420000000     0          
H383     H      0.019120000000     0.131680000000     0.831280000000     0          
H384     H      0.216780000000     0.193160000000     0.714950000000     0          
H385     H      0.151100000000     0.158130000000     0.680490000000     0          
Zr386    Zr     0.891440000000     0.655360000000     0.558510000000     0          
O387     O      0.675130000000     0.436870000000     0.684110000000     0          
O388     O      0.896130000000     0.674970000000     0.524200000000     0          
H389     H      0.929530000000     0.702770000000     0.515970000000     0          
O390     O      0.846930000000     0.608070000000     0.588470000000     0          
O391     O      0.718130000000     0.548070000000     0.516970000000     0          
O392     O      0.688430000000     0.573870000000     0.547450000000     0          
C393     C      0.814530000000     0.535770000000     0.625730000000     0          
C394     C      0.609330000000     0.439370000000     0.739130000000     0          
H395     H      0.635630000000     0.454570000000     0.751370000000     0          
C396     C      0.681430000000     0.537070000000     0.531930000000     0          
C397     C      0.860030000000     0.669770000000     0.476410000000     0          
H398     H      0.897730000000     0.704170000000     0.477370000000     0          
C399     C      0.626630000000     0.480670000000     0.531800000000     0          
C400     C      0.583230000000     0.468770000000     0.548470000000     0          
C401     C      0.850730000000     0.612370000000     0.474900000000     0          
H402     H      0.879530000000     0.600470000000     0.474170000000     0          
C403     C      0.795730000000     0.500570000000     0.645080000000     0          
C404     C      0.986130000000     0.661670000000     0.571270000000     0          
H405     H      0.987530000000     0.626070000000     0.571670000000     0          
C406     C      0.618130000000     0.466770000000     0.718600000000     0          
H407     H      0.650330000000     0.503770000000     0.714170000000     0          
C408     C      0.992530000000     0.743170000000     0.559570000000     0          
H409     H      0.998230000000     0.774770000000     0.550170000000     0          
C410     C      0.614030000000     0.437870000000     0.515670000000     0          
C411     C      0.001030000000     0.700170000000     0.554170000000     0          
H412     H      0.015630000000     0.696170000000     0.540170000000     0          
C413     C      0.973830000000     0.735070000000     0.581170000000     0          
H414     H      0.966130000000     0.761070000000     0.589570000000     0          
C415     C      0.968430000000     0.686170000000     0.588070000000     0          
H416     H      0.954530000000     0.669470000000     0.602370000000     0          
H417     H      0.741400000000     0.577600000000     0.104760000000     0          
H418     H      0.685790000000     0.465020000000     0.164610000000     0          
H419     H      0.883450000000     0.526490000000     0.048280000000     0          
H420     H      0.817770000000     0.491460000000     0.013820000000     0          
Zr421    Zr     0.430580000000     0.441890000000     0.891840000000     0          
O422     O      0.428400000000     0.658200000000     0.017440000000     0          
O423     O      0.445500000000     0.437200000000     0.857530000000     0          
H424     H      0.439900000000     0.403800000000     0.849300000000     0          
O425     O      0.427800000000     0.486400000000     0.921800000000     0          
O426     O      0.496600000000     0.615200000000     0.850300000000     0          
O427     O      0.552100000000     0.644900000000     0.880780000000     0          
C428     C      0.387900000000     0.518800000000     0.959060000000     0          
C429     C      0.496700000000     0.724000000000     0.072460000000     0          
H430     H      0.485600000000     0.697700000000     0.084700000000     0          
C431     C      0.522300000000     0.651900000000     0.865260000000     0          
C432     C      0.476400000000     0.473300000000     0.809740000000     0          
H433     H      0.473100000000     0.435600000000     0.810700000000     0          
C434     C      0.520700000000     0.706700000000     0.865130000000     0          
C435     C      0.552200000000     0.750100000000     0.881800000000     0          
C436     C      0.428300000000     0.482600000000     0.808230000000     0          
H437     H      0.387600000000     0.453800000000     0.807500000000     0          
C438     C      0.371500000000     0.537600000000     0.978410000000     0          
C439     C      0.342200000000     0.347200000000     0.904600000000     0          
H440     H      0.305200000000     0.345800000000     0.905000000000     0          
C441     C      0.515300000000     0.715200000000     0.051930000000     0          
H442     H      0.520100000000     0.683000000000     0.047500000000     0          
C443     C      0.417300000000     0.340800000000     0.892900000000     0          
H444     H      0.443200000000     0.335100000000     0.883500000000     0          
C445     C      0.490500000000     0.719300000000     0.849000000000     0          
C446     C      0.365800000000     0.332300000000     0.887500000000     0          
H447     H      0.347200000000     0.317700000000     0.873500000000     0          
C448     C      0.427900000000     0.359500000000     0.914500000000     0          
H449     H      0.461600000000     0.367200000000     0.922900000000     0          
C450     C      0.384400000000     0.364900000000     0.921400000000     0          
H451     H      0.381600000000     0.378800000000     0.935700000000     0          
H452     H      0.502870000000     0.591940000000     0.438090000000     0          
H453     H      0.445890000000     0.647540000000     0.497940000000     0          
H454     H      0.309710000000     0.449890000000     0.381610000000     0          
H455     H      0.340360000000     0.515560000000     0.347160000000     0          
Zr456    Zr     0.097250000000     0.775220000000     0.225170000000     0          
O457     O      0.095070000000     0.991530000000     0.350770000000     0          
O458     O      0.112170000000     0.770530000000     0.190860000000     0          
H459     H      0.106570000000     0.737130000000     0.182630000000     0          
O460     O      0.094470000000     0.819730000000     0.255130000000     0          
O461     O      0.163270000000     0.948530000000     0.183630000000     0          
O462     O      0.218770000000     0.978230000000     0.214110000000     0          
C463     C      0.054570000000     0.852130000000     0.292390000000     0          
C464     C      0.163370000000     0.057330000000     0.405790000000     0          
H465     H      0.152270000000     0.031030000000     0.418030000000     0          
C466     C      0.188970000000     0.985230000000     0.198590000000     0          
C467     C      0.143070000000     0.806630000000     0.143070000000     0          
H468     H      0.139770000000     0.768930000000     0.144030000000     0          
C469     C      0.187370000000     0.040030000000     0.198460000000     0          
C470     C      0.218870000000     0.083430000000     0.215130000000     0          
C471     C      0.094970000000     0.815930000000     0.141560000000     0          
H472     H      0.054270000000     0.787130000000     0.140830000000     0          
C473     C      0.038170000000     0.870930000000     0.311740000000     0          
C474     C      0.008870000000     0.680530000000     0.237930000000     0          
H475     H      0.971870000000     0.679130000000     0.238330000000     0          
C476     C      0.181970000000     0.048530000000     0.385260000000     0          
H477     H      0.186770000000     0.016330000000     0.380830000000     0          
C478     C      0.083970000000     0.674130000000     0.226230000000     0          
H479     H      0.109870000000     0.668430000000     0.216830000000     0          
C480     C      0.157170000000     0.052630000000     0.182330000000     0          
C481     C      0.032470000000     0.665630000000     0.220830000000     0          
H482     H      0.013870000000     0.651030000000     0.206830000000     0          
C483     C      0.094570000000     0.692830000000     0.247830000000     0          
H484     H      0.128270000000     0.700530000000     0.256230000000     0          
C485     C      0.051070000000     0.698230000000     0.254730000000     0          
H486     H      0.048270000000     0.712130000000     0.269030000000     0          
H487     H      0.169540000000     0.925270000000     0.771420000000     0          
H488     H      0.112560000000     0.980880000000     0.831280000000     0          
H489     H      0.976380000000     0.783220000000     0.714950000000     0          
H490     H      0.007030000000     0.848900000000     0.680490000000     0          
Zr491    Zr     0.763910000000     0.108560000000     0.558510000000     0          
O492     O      0.761730000000     0.324870000000     0.684110000000     0          
O493     O      0.778830000000     0.103870000000     0.524200000000     0          
H494     H      0.773230000000     0.070470000000     0.515970000000     0          
O495     O      0.761130000000     0.153070000000     0.588470000000     0          
O496     O      0.829930000000     0.281870000000     0.516970000000     0          
O497     O      0.885430000000     0.311570000000     0.547450000000     0          
C498     C      0.721230000000     0.185470000000     0.625730000000     0          
C499     C      0.830030000000     0.390670000000     0.739130000000     0          
H500     H      0.818930000000     0.364370000000     0.751370000000     0          
C501     C      0.855630000000     0.318570000000     0.531930000000     0          
C502     C      0.809730000000     0.139970000000     0.476410000000     0          
H503     H      0.806430000000     0.102270000000     0.477370000000     0          
C504     C      0.854030000000     0.373370000000     0.531800000000     0          
C505     C      0.885530000000     0.416770000000     0.548470000000     0          
C506     C      0.761630000000     0.149270000000     0.474900000000     0          
H507     H      0.720930000000     0.120470000000     0.474170000000     0          
C508     C      0.704830000000     0.204270000000     0.645080000000     0          
C509     C      0.675530000000     0.013870000000     0.571270000000     0          
H510     H      0.638530000000     0.012470000000     0.571670000000     0          
C511     C      0.848630000000     0.381870000000     0.718600000000     0          
H512     H      0.853430000000     0.349670000000     0.714170000000     0          
C513     C      0.750630000000     0.007470000000     0.559570000000     0          
H514     H      0.776530000000     0.001770000000     0.550170000000     0          
C515     C      0.823830000000     0.385970000000     0.515670000000     0          
C516     C      0.699130000000     0.998970000000     0.554170000000     0          
H517     H      0.680530000000     0.984370000000     0.540170000000     0          
C518     C      0.761230000000     0.026170000000     0.581170000000     0          
H519     H      0.794930000000     0.033870000000     0.589570000000     0          
C520     C      0.717730000000     0.031570000000     0.588070000000     0          
H521     H      0.714930000000     0.045470000000     0.602370000000     0          
H522     H      0.836210000000     0.258600000000     0.104760000000     0          
H523     H      0.779230000000     0.314210000000     0.164610000000     0          
H524     H      0.643050000000     0.116550000000     0.048280000000     0          
H525     H      0.673700000000     0.182230000000     0.013820000000     0          
Zr526    Zr     0.011310000000     0.569420000000     0.891840000000     0          
O527     O      0.229800000000     0.571600000000     0.017440000000     0          
O528     O      0.991700000000     0.554500000000     0.857530000000     0          
H529     H      0.963900000000     0.560100000000     0.849300000000     0          
O530     O      0.058600000000     0.572200000000     0.921800000000     0          
O531     O      0.118600000000     0.503400000000     0.850300000000     0          
O532     O      0.092800000000     0.447900000000     0.880780000000     0          
C533     C      0.130900000000     0.612100000000     0.959060000000     0          
C534     C      0.227300000000     0.503300000000     0.072460000000     0          
H535     H      0.212100000000     0.514400000000     0.084700000000     0          
C536     C      0.129600000000     0.477700000000     0.865260000000     0          
C537     C      0.996900000000     0.523600000000     0.809740000000     0          
H538     H      0.962500000000     0.526900000000     0.810700000000     0          
C539     C      0.186000000000     0.479300000000     0.865130000000     0          
C540     C      0.197900000000     0.447800000000     0.881800000000     0          
C541     C      0.054300000000     0.571700000000     0.808230000000     0          
H542     H      0.066200000000     0.612400000000     0.807500000000     0          
C543     C      0.166100000000     0.628500000000     0.978410000000     0          
C544     C      0.005000000000     0.657800000000     0.904600000000     0          
H545     H      0.040600000000     0.694800000000     0.905000000000     0          
C546     C      0.199900000000     0.484700000000     0.051930000000     0          
H547     H      0.162900000000     0.479900000000     0.047500000000     0          
C548     C      0.923500000000     0.582700000000     0.892900000000     0          
H549     H      0.891900000000     0.556800000000     0.883500000000     0          
C550     C      0.228800000000     0.509500000000     0.849000000000     0          
C551     C      0.966500000000     0.634200000000     0.887500000000     0          
H552     H      0.970500000000     0.652800000000     0.873500000000     0          
C553     C      0.931600000000     0.572100000000     0.914500000000     0          
H554     H      0.905600000000     0.538400000000     0.922900000000     0          
C555     C      0.980500000000     0.615600000000     0.921400000000     0          
H556     H      0.997200000000     0.618400000000     0.935700000000     0          
H557     H      0.089060000000     0.497130000000     0.438090000000     0          
H558     H      0.201650000000     0.554110000000     0.497940000000     0          
H559     H      0.140170000000     0.690290000000     0.381610000000     0          
H560     H      0.175200000000     0.659640000000     0.347160000000     0          
Zr561    Zr     0.677980000000     0.902750000000     0.225170000000     0          
O562     O      0.896470000000     0.904930000000     0.350770000000     0          
O563     O      0.658370000000     0.887830000000     0.190860000000     0          
H564     H      0.630570000000     0.893430000000     0.182630000000     0          
O565     O      0.725270000000     0.905530000000     0.255130000000     0          
O566     O      0.785270000000     0.836730000000     0.183630000000     0          
O567     O      0.759470000000     0.781230000000     0.214110000000     0          
C568     C      0.797570000000     0.945430000000     0.292390000000     0          
C569     C      0.893970000000     0.836630000000     0.405790000000     0          
H570     H      0.878770000000     0.847730000000     0.418030000000     0          
C571     C      0.796270000000     0.811030000000     0.198590000000     0          
C572     C      0.663570000000     0.856930000000     0.143070000000     0          
H573     H      0.629170000000     0.860230000000     0.144030000000     0          
C574     C      0.852670000000     0.812630000000     0.198460000000     0          
C575     C      0.864570000000     0.781130000000     0.215130000000     0          
C576     C      0.720970000000     0.905030000000     0.141560000000     0          
H577     H      0.732870000000     0.945730000000     0.140830000000     0          
C578     C      0.832770000000     0.961830000000     0.311740000000     0          
C579     C      0.671670000000     0.991130000000     0.237930000000     0          
H580     H      0.707270000000     0.028130000000     0.238330000000     0          
C581     C      0.866570000000     0.818030000000     0.385260000000     0          
H582     H      0.829570000000     0.813230000000     0.380830000000     0          
C583     C      0.590170000000     0.916030000000     0.226230000000     0          
H584     H      0.558570000000     0.890130000000     0.216830000000     0          
C585     C      0.895470000000     0.842830000000     0.182330000000     0          
C586     C      0.633170000000     0.967530000000     0.220830000000     0          
H587     H      0.637170000000     0.986130000000     0.206830000000     0          
C588     C      0.598270000000     0.905430000000     0.247830000000     0          
H589     H      0.572270000000     0.871730000000     0.256230000000     0          
C590     C      0.647170000000     0.948930000000     0.254730000000     0          
H591     H      0.663870000000     0.951730000000     0.269030000000     0          
H592     H      0.755730000000     0.830460000000     0.771420000000     0          
H593     H      0.868320000000     0.887440000000     0.831280000000     0          
H594     H      0.806840000000     0.023620000000     0.714950000000     0          
H595     H      0.841870000000     0.992970000000     0.680490000000     0          
Zr596    Zr     0.344640000000     0.236090000000     0.558510000000     0          
O597     O      0.563130000000     0.238270000000     0.684110000000     0          
O598     O      0.325030000000     0.221170000000     0.524200000000     0          
H599     H      0.297230000000     0.226770000000     0.515970000000     0          
O600     O      0.391930000000     0.238870000000     0.588470000000     0          
O601     O      0.451930000000     0.170070000000     0.516970000000     0          
O602     O      0.426130000000     0.114570000000     0.547450000000     0          
C603     C      0.464230000000     0.278770000000     0.625730000000     0          
C604     C      0.560630000000     0.169970000000     0.739130000000     0          
H605     H      0.545430000000     0.181070000000     0.751370000000     0          
C606     C      0.462930000000     0.144370000000     0.531930000000     0          
C607     C      0.330230000000     0.190270000000     0.476410000000     0          
H608     H      0.295830000000     0.193570000000     0.477370000000     0          
C609     C      0.519330000000     0.145970000000     0.531800000000     0          
C610     C      0.531230000000     0.114470000000     0.548470000000     0          
C611     C      0.387630000000     0.238370000000     0.474900000000     0          
H612     H      0.399530000000     0.279070000000     0.474170000000     0          
C613     C      0.499430000000     0.295170000000     0.645080000000     0          
C614     C      0.338330000000     0.324470000000     0.571270000000     0          
H615     H      0.373930000000     0.361470000000     0.571670000000     0          
C616     C      0.533230000000     0.151370000000     0.718600000000     0          
H617     H      0.496230000000     0.146570000000     0.714170000000     0          
C618     C      0.256830000000     0.249370000000     0.559570000000     0          
H619     H      0.225230000000     0.223470000000     0.550170000000     0          
C620     C      0.562130000000     0.176170000000     0.515670000000     0          
C621     C      0.299830000000     0.300870000000     0.554170000000     0          
H622     H      0.303830000000     0.319470000000     0.540170000000     0          
C623     C      0.264930000000     0.238770000000     0.581170000000     0          
H624     H      0.238930000000     0.205070000000     0.589570000000     0          
C625     C      0.313830000000     0.282270000000     0.588070000000     0          
H626     H      0.330530000000     0.285070000000     0.602370000000     0          
H627     H      0.422400000000     0.163790000000     0.104760000000     0          
H628     H      0.534980000000     0.220770000000     0.164610000000     0          
H629     H      0.473510000000     0.356950000000     0.048280000000     0          
H630     H      0.508540000000     0.326300000000     0.013820000000     0          
Zr631    Zr     0.011310000000     0.441890000000     0.891840000000     0          
O632     O      0.229800000000     0.658200000000     0.017440000000     0          
O633     O      0.991700000000     0.437200000000     0.857530000000     0          
H634     H      0.963900000000     0.403800000000     0.849300000000     0          
O635     O      0.058600000000     0.486400000000     0.921800000000     0          
O636     O      0.118600000000     0.615200000000     0.850300000000     0          
O637     O      0.092800000000     0.644900000000     0.880780000000     0          
C638     C      0.130900000000     0.518800000000     0.959060000000     0          
C639     C      0.227300000000     0.724000000000     0.072460000000     0          
H640     H      0.212100000000     0.697700000000     0.084700000000     0          
C641     C      0.129600000000     0.651900000000     0.865260000000     0          
C642     C      0.996900000000     0.473300000000     0.809740000000     0          
H643     H      0.962500000000     0.435600000000     0.810700000000     0          
C644     C      0.186000000000     0.706700000000     0.865130000000     0          
C645     C      0.197900000000     0.750100000000     0.881800000000     0          
C646     C      0.054300000000     0.482600000000     0.808230000000     0          
H647     H      0.066200000000     0.453800000000     0.807500000000     0          
C648     C      0.166100000000     0.537600000000     0.978410000000     0          
C649     C      0.005000000000     0.347200000000     0.904600000000     0          
H650     H      0.040600000000     0.345800000000     0.905000000000     0          
C651     C      0.199900000000     0.715200000000     0.051930000000     0          
H652     H      0.162900000000     0.683000000000     0.047500000000     0          
C653     C      0.923500000000     0.340800000000     0.892900000000     0          
H654     H      0.891900000000     0.335100000000     0.883500000000     0          
C655     C      0.228800000000     0.719300000000     0.849000000000     0          
C656     C      0.966500000000     0.332300000000     0.887500000000     0          
H657     H      0.970500000000     0.317700000000     0.873500000000     0          
C658     C      0.931600000000     0.359500000000     0.914500000000     0          
H659     H      0.905600000000     0.367200000000     0.922900000000     0          
C660     C      0.980500000000     0.364900000000     0.921400000000     0          
H661     H      0.997200000000     0.378800000000     0.935700000000     0          
H662     H      0.089060000000     0.591940000000     0.438090000000     0          
H663     H      0.201650000000     0.647540000000     0.497940000000     0          
H664     H      0.140170000000     0.449890000000     0.381610000000     0          
H665     H      0.175200000000     0.515560000000     0.347160000000     0          
Zr666    Zr     0.677980000000     0.775220000000     0.225170000000     0          
O667     O      0.896470000000     0.991530000000     0.350770000000     0          
O668     O      0.658370000000     0.770530000000     0.190860000000     0          
H669     H      0.630570000000     0.737130000000     0.182630000000     0          
O670     O      0.725270000000     0.819730000000     0.255130000000     0          
O671     O      0.785270000000     0.948530000000     0.183630000000     0          
O672     O      0.759470000000     0.978230000000     0.214110000000     0          
C673     C      0.797570000000     0.852130000000     0.292390000000     0          
C674     C      0.893970000000     0.057330000000     0.405790000000     0          
H675     H      0.878770000000     0.031030000000     0.418030000000     0          
C676     C      0.796270000000     0.985230000000     0.198590000000     0          
C677     C      0.663570000000     0.806630000000     0.143070000000     0          
H678     H      0.629170000000     0.768930000000     0.144030000000     0          
C679     C      0.852670000000     0.040030000000     0.198460000000     0          
C680     C      0.864570000000     0.083430000000     0.215130000000     0          
C681     C      0.720970000000     0.815930000000     0.141560000000     0          
H682     H      0.732870000000     0.787130000000     0.140830000000     0          
C683     C      0.832770000000     0.870930000000     0.311740000000     0          
C684     C      0.671670000000     0.680530000000     0.237930000000     0          
H685     H      0.707270000000     0.679130000000     0.238330000000     0          
C686     C      0.866570000000     0.048530000000     0.385260000000     0          
H687     H      0.829570000000     0.016330000000     0.380830000000     0          
C688     C      0.590170000000     0.674130000000     0.226230000000     0          
H689     H      0.558570000000     0.668430000000     0.216830000000     0          
C690     C      0.895470000000     0.052630000000     0.182330000000     0          
C691     C      0.633170000000     0.665630000000     0.220830000000     0          
H692     H      0.637170000000     0.651030000000     0.206830000000     0          
C693     C      0.598270000000     0.692830000000     0.247830000000     0          
H694     H      0.572270000000     0.700530000000     0.256230000000     0          
C695     C      0.647170000000     0.698230000000     0.254730000000     0          
H696     H      0.663870000000     0.712130000000     0.269030000000     0          
H697     H      0.755730000000     0.925270000000     0.771420000000     0          
H698     H      0.868320000000     0.980880000000     0.831280000000     0          
H699     H      0.806840000000     0.783220000000     0.714950000000     0          
H700     H      0.841870000000     0.848900000000     0.680490000000     0          
Zr701    Zr     0.344640000000     0.108560000000     0.558510000000     0          
O702     O      0.563130000000     0.324870000000     0.684110000000     0          
O703     O      0.325030000000     0.103870000000     0.524200000000     0          
H704     H      0.297230000000     0.070470000000     0.515970000000     0          
O705     O      0.391930000000     0.153070000000     0.588470000000     0          
O706     O      0.451930000000     0.281870000000     0.516970000000     0          
O707     O      0.426130000000     0.311570000000     0.547450000000     0          
C708     C      0.464230000000     0.185470000000     0.625730000000     0          
C709     C      0.560630000000     0.390670000000     0.739130000000     0          
H710     H      0.545430000000     0.364370000000     0.751370000000     0          
C711     C      0.462930000000     0.318570000000     0.531930000000     0          
C712     C      0.330230000000     0.139970000000     0.476410000000     0          
H713     H      0.295830000000     0.102270000000     0.477370000000     0          
C714     C      0.519330000000     0.373370000000     0.531800000000     0          
C715     C      0.531230000000     0.416770000000     0.548470000000     0          
C716     C      0.387630000000     0.149270000000     0.474900000000     0          
H717     H      0.399530000000     0.120470000000     0.474170000000     0          
C718     C      0.499430000000     0.204270000000     0.645080000000     0          
C719     C      0.338330000000     0.013870000000     0.571270000000     0          
H720     H      0.373930000000     0.012470000000     0.571670000000     0          
C721     C      0.533230000000     0.381870000000     0.718600000000     0          
H722     H      0.496230000000     0.349670000000     0.714170000000     0          
C723     C      0.256830000000     0.007470000000     0.559570000000     0          
H724     H      0.225230000000     0.001770000000     0.550170000000     0          
C725     C      0.562130000000     0.385970000000     0.515670000000     0          
C726     C      0.299830000000     0.998970000000     0.554170000000     0          
H727     H      0.303830000000     0.984370000000     0.540170000000     0          
C728     C      0.264930000000     0.026170000000     0.581170000000     0          
H729     H      0.238930000000     0.033870000000     0.589570000000     0          
C730     C      0.313830000000     0.031570000000     0.588070000000     0          
H731     H      0.330530000000     0.045470000000     0.602370000000     0          
H732     H      0.422400000000     0.258600000000     0.104760000000     0          
H733     H      0.534980000000     0.314210000000     0.164610000000     0          
H734     H      0.473510000000     0.116550000000     0.048280000000     0          
H735     H      0.508540000000     0.182230000000     0.013820000000     0          
Zr736    Zr     0.558110000000     0.569420000000     0.891840000000     0          
O737     O      0.341800000000     0.571600000000     0.017440000000     0          
O738     O      0.562800000000     0.554500000000     0.857530000000     0          
H739     H      0.596200000000     0.560100000000     0.849300000000     0          
O740     O      0.513600000000     0.572200000000     0.921800000000     0          
O741     O      0.384800000000     0.503400000000     0.850300000000     0          
O742     O      0.355100000000     0.447900000000     0.880780000000     0          
C743     C      0.481200000000     0.612100000000     0.959060000000     0          
C744     C      0.276000000000     0.503300000000     0.072460000000     0          
H745     H      0.302300000000     0.514400000000     0.084700000000     0          
C746     C      0.348100000000     0.477700000000     0.865260000000     0          
C747     C      0.526700000000     0.523600000000     0.809740000000     0          
H748     H      0.564400000000     0.526900000000     0.810700000000     0          
C749     C      0.293300000000     0.479300000000     0.865130000000     0          
C750     C      0.249900000000     0.447800000000     0.881800000000     0          
C751     C      0.517400000000     0.571700000000     0.808230000000     0          
H752     H      0.546200000000     0.612400000000     0.807500000000     0          
C753     C      0.462400000000     0.628500000000     0.978410000000     0          
C754     C      0.652800000000     0.657800000000     0.904600000000     0          
H755     H      0.654200000000     0.694800000000     0.905000000000     0          
C756     C      0.284800000000     0.484700000000     0.051930000000     0          
H757     H      0.317000000000     0.479900000000     0.047500000000     0          
C758     C      0.659200000000     0.582700000000     0.892900000000     0          
H759     H      0.664900000000     0.556800000000     0.883500000000     0          
C760     C      0.280700000000     0.509500000000     0.849000000000     0          
C761     C      0.667700000000     0.634200000000     0.887500000000     0          
H762     H      0.682300000000     0.652800000000     0.873500000000     0          
C763     C      0.640500000000     0.572100000000     0.914500000000     0          
H764     H      0.632800000000     0.538400000000     0.922900000000     0          
C765     C      0.635100000000     0.615600000000     0.921400000000     0          
H766     H      0.621200000000     0.618400000000     0.935700000000     0          
H767     H      0.408060000000     0.497130000000     0.438090000000     0          
H768     H      0.352460000000     0.554110000000     0.497940000000     0          
H769     H      0.550110000000     0.690290000000     0.381610000000     0          
H770     H      0.484440000000     0.659640000000     0.347160000000     0          
Zr771    Zr     0.224780000000     0.902750000000     0.225170000000     0          
O772     O      0.008470000000     0.904930000000     0.350770000000     0          
O773     O      0.229470000000     0.887830000000     0.190860000000     0          
H774     H      0.262870000000     0.893430000000     0.182630000000     0          
O775     O      0.180270000000     0.905530000000     0.255130000000     0          
O776     O      0.051470000000     0.836730000000     0.183630000000     0          
O777     O      0.021770000000     0.781230000000     0.214110000000     0          
C778     C      0.147870000000     0.945430000000     0.292390000000     0          
C779     C      0.942670000000     0.836630000000     0.405790000000     0          
H780     H      0.968970000000     0.847730000000     0.418030000000     0          
C781     C      0.014770000000     0.811030000000     0.198590000000     0          
C782     C      0.193370000000     0.856930000000     0.143070000000     0          
H783     H      0.231070000000     0.860230000000     0.144030000000     0          
C784     C      0.959970000000     0.812630000000     0.198460000000     0          
C785     C      0.916570000000     0.781130000000     0.215130000000     0          
C786     C      0.184070000000     0.905030000000     0.141560000000     0          
H787     H      0.212870000000     0.945730000000     0.140830000000     0          
C788     C      0.129070000000     0.961830000000     0.311740000000     0          
C789     C      0.319470000000     0.991130000000     0.237930000000     0          
H790     H      0.320870000000     0.028130000000     0.238330000000     0          
C791     C      0.951470000000     0.818030000000     0.385260000000     0          
H792     H      0.983670000000     0.813230000000     0.380830000000     0          
C793     C      0.325870000000     0.916030000000     0.226230000000     0          
H794     H      0.331570000000     0.890130000000     0.216830000000     0          
C795     C      0.947370000000     0.842830000000     0.182330000000     0          
C796     C      0.334370000000     0.967530000000     0.220830000000     0          
H797     H      0.348970000000     0.986130000000     0.206830000000     0          
C798     C      0.307170000000     0.905430000000     0.247830000000     0          
H799     H      0.299470000000     0.871730000000     0.256230000000     0          
C800     C      0.301770000000     0.948930000000     0.254730000000     0          
H801     H      0.287870000000     0.951730000000     0.269030000000     0          
H802     H      0.074730000000     0.830460000000     0.771420000000     0          
H803     H      0.019120000000     0.887440000000     0.831280000000     0          
H804     H      0.216780000000     0.023620000000     0.714950000000     0          
H805     H      0.151100000000     0.992970000000     0.680490000000     0          
Zr806    Zr     0.891440000000     0.236090000000     0.558510000000     0          
O807     O      0.675130000000     0.238270000000     0.684110000000     0          
O808     O      0.896130000000     0.221170000000     0.524200000000     0          
H809     H      0.929530000000     0.226770000000     0.515970000000     0          
O810     O      0.846930000000     0.238870000000     0.588470000000     0          
O811     O      0.718130000000     0.170070000000     0.516970000000     0          
O812     O      0.688430000000     0.114570000000     0.547450000000     0          
C813     C      0.814530000000     0.278770000000     0.625730000000     0          
C814     C      0.609330000000     0.169970000000     0.739130000000     0          
H815     H      0.635630000000     0.181070000000     0.751370000000     0          
C816     C      0.681430000000     0.144370000000     0.531930000000     0          
C817     C      0.860030000000     0.190270000000     0.476410000000     0          
H818     H      0.897730000000     0.193570000000     0.477370000000     0          
C819     C      0.626630000000     0.145970000000     0.531800000000     0          
C820     C      0.583230000000     0.114470000000     0.548470000000     0          
C821     C      0.850730000000     0.238370000000     0.474900000000     0          
H822     H      0.879530000000     0.279070000000     0.474170000000     0          
C823     C      0.795730000000     0.295170000000     0.645080000000     0          
C824     C      0.986130000000     0.324470000000     0.571270000000     0          
H825     H      0.987530000000     0.361470000000     0.571670000000     0          
C826     C      0.618130000000     0.151370000000     0.718600000000     0          
H827     H      0.650330000000     0.146570000000     0.714170000000     0          
C828     C      0.992530000000     0.249370000000     0.559570000000     0          
H829     H      0.998230000000     0.223470000000     0.550170000000     0          
C830     C      0.614030000000     0.176170000000     0.515670000000     0          
C831     C      0.001030000000     0.300870000000     0.554170000000     0          
H832     H      0.015630000000     0.319470000000     0.540170000000     0          
C833     C      0.973830000000     0.238770000000     0.581170000000     0          
H834     H      0.966130000000     0.205070000000     0.589570000000     0          
C835     C      0.968430000000     0.282270000000     0.588070000000     0          
H836     H      0.954530000000     0.285070000000     0.602370000000     0          
H837     H      0.741400000000     0.163790000000     0.104760000000     0          
H838     H      0.685790000000     0.220770000000     0.164610000000     0          
H839     H      0.883450000000     0.356950000000     0.048280000000     0          
H840     H      0.817770000000     0.326300000000     0.013820000000     0          
Zr841    Zr     0.430580000000     0.988690000000     0.891840000000     0          
O842     O      0.428400000000     0.770200000000     0.017440000000     0          
O843     O      0.445500000000     0.008300000000     0.857530000000     0          
H844     H      0.439900000000     0.036100000000     0.849300000000     0          
O845     O      0.427800000000     0.941400000000     0.921800000000     0          
O846     O      0.496600000000     0.881400000000     0.850300000000     0          
O847     O      0.552100000000     0.907200000000     0.880780000000     0          
C848     C      0.387900000000     0.869100000000     0.959060000000     0          
C849     C      0.496700000000     0.772700000000     0.072460000000     0          
H850     H      0.485600000000     0.787900000000     0.084700000000     0          
C851     C      0.522300000000     0.870400000000     0.865260000000     0          
C852     C      0.476400000000     0.003100000000     0.809740000000     0          
H853     H      0.473100000000     0.037500000000     0.810700000000     0          
C854     C      0.520700000000     0.814000000000     0.865130000000     0          
C855     C      0.552200000000     0.802100000000     0.881800000000     0          
C856     C      0.428300000000     0.945700000000     0.808230000000     0          
H857     H      0.387600000000     0.933800000000     0.807500000000     0          
C858     C      0.371500000000     0.833900000000     0.978410000000     0          
C859     C      0.342200000000     0.995000000000     0.904600000000     0          
H860     H      0.305200000000     0.959400000000     0.905000000000     0          
C861     C      0.515300000000     0.800100000000     0.051930000000     0          
H862     H      0.520100000000     0.837100000000     0.047500000000     0          
C863     C      0.417300000000     0.076500000000     0.892900000000     0          
H864     H      0.443200000000     0.108100000000     0.883500000000     0          
C865     C      0.490500000000     0.771200000000     0.849000000000     0          
C866     C      0.365800000000     0.033500000000     0.887500000000     0          
H867     H      0.347200000000     0.029500000000     0.873500000000     0          
C868     C      0.427900000000     0.068400000000     0.914500000000     0          
H869     H      0.461600000000     0.094400000000     0.922900000000     0          
C870     C      0.384400000000     0.019500000000     0.921400000000     0          
H871     H      0.381600000000     0.002800000000     0.935700000000     0          
H872     H      0.502870000000     0.910940000000     0.438090000000     0          
H873     H      0.445890000000     0.798350000000     0.497940000000     0          
H874     H      0.309710000000     0.859830000000     0.381610000000     0          
H875     H      0.340360000000     0.824800000000     0.347160000000     0          
Zr876    Zr     0.097250000000     0.322020000000     0.225170000000     0          
O877     O      0.095070000000     0.103530000000     0.350770000000     0          
O878     O      0.112170000000     0.341630000000     0.190860000000     0          
H879     H      0.106570000000     0.369430000000     0.182630000000     0          
O880     O      0.094470000000     0.274730000000     0.255130000000     0          
O881     O      0.163270000000     0.214730000000     0.183630000000     0          
O882     O      0.218770000000     0.240530000000     0.214110000000     0          
C883     C      0.054570000000     0.202430000000     0.292390000000     0          
C884     C      0.163370000000     0.106030000000     0.405790000000     0          
H885     H      0.152270000000     0.121230000000     0.418030000000     0          
C886     C      0.188970000000     0.203730000000     0.198590000000     0          
C887     C      0.143070000000     0.336430000000     0.143070000000     0          
H888     H      0.139770000000     0.370830000000     0.144030000000     0          
C889     C      0.187370000000     0.147330000000     0.198460000000     0          
C890     C      0.218870000000     0.135430000000     0.215130000000     0          
C891     C      0.094970000000     0.279030000000     0.141560000000     0          
H892     H      0.054270000000     0.267130000000     0.140830000000     0          
C893     C      0.038170000000     0.167230000000     0.311740000000     0          
C894     C      0.008870000000     0.328330000000     0.237930000000     0          
H895     H      0.971870000000     0.292730000000     0.238330000000     0          
C896     C      0.181970000000     0.133430000000     0.385260000000     0          
H897     H      0.186770000000     0.170430000000     0.380830000000     0          
C898     C      0.083970000000     0.409830000000     0.226230000000     0          
H899     H      0.109870000000     0.441430000000     0.216830000000     0          
C900     C      0.157170000000     0.104530000000     0.182330000000     0          
C901     C      0.032470000000     0.366830000000     0.220830000000     0          
H902     H      0.013870000000     0.362830000000     0.206830000000     0          
C903     C      0.094570000000     0.401730000000     0.247830000000     0          
H904     H      0.128270000000     0.427730000000     0.256230000000     0          
C905     C      0.051070000000     0.352830000000     0.254730000000     0          
H906     H      0.048270000000     0.336130000000     0.269030000000     0          
H907     H      0.169540000000     0.244270000000     0.771420000000     0          
H908     H      0.112560000000     0.131680000000     0.831280000000     0          
H909     H      0.976380000000     0.193160000000     0.714950000000     0          
H910     H      0.007030000000     0.158130000000     0.680490000000     0          
Zr911    Zr     0.763910000000     0.655360000000     0.558510000000     0          
O912     O      0.761730000000     0.436870000000     0.684110000000     0          
O913     O      0.778830000000     0.674970000000     0.524200000000     0          
H914     H      0.773230000000     0.702770000000     0.515970000000     0          
O915     O      0.761130000000     0.608070000000     0.588470000000     0          
O916     O      0.829930000000     0.548070000000     0.516970000000     0          
O917     O      0.885430000000     0.573870000000     0.547450000000     0          
C918     C      0.721230000000     0.535770000000     0.625730000000     0          
C919     C      0.830030000000     0.439370000000     0.739130000000     0          
H920     H      0.818930000000     0.454570000000     0.751370000000     0          
C921     C      0.855630000000     0.537070000000     0.531930000000     0          
C922     C      0.809730000000     0.669770000000     0.476410000000     0          
H923     H      0.806430000000     0.704170000000     0.477370000000     0          
C924     C      0.854030000000     0.480670000000     0.531800000000     0          
C925     C      0.885530000000     0.468770000000     0.548470000000     0          
C926     C      0.761630000000     0.612370000000     0.474900000000     0          
H927     H      0.720930000000     0.600470000000     0.474170000000     0          
C928     C      0.704830000000     0.500570000000     0.645080000000     0          
C929     C      0.675530000000     0.661670000000     0.571270000000     0          
H930     H      0.638530000000     0.626070000000     0.571670000000     0          
C931     C      0.848630000000     0.466770000000     0.718600000000     0          
H932     H      0.853430000000     0.503770000000     0.714170000000     0          
C933     C      0.750630000000     0.743170000000     0.559570000000     0          
H934     H      0.776530000000     0.774770000000     0.550170000000     0          
C935     C      0.823830000000     0.437870000000     0.515670000000     0          
C936     C      0.699130000000     0.700170000000     0.554170000000     0          
H937     H      0.680530000000     0.696170000000     0.540170000000     0          
C938     C      0.761230000000     0.735070000000     0.581170000000     0          
H939     H      0.794930000000     0.761070000000     0.589570000000     0          
C940     C      0.717730000000     0.686170000000     0.588070000000     0          
H941     H      0.714930000000     0.669470000000     0.602370000000     0          
H942     H      0.836210000000     0.577600000000     0.104760000000     0          
H943     H      0.779230000000     0.465020000000     0.164610000000     0          
H944     H      0.643050000000     0.526490000000     0.048280000000     0          
H945     H      0.673700000000     0.491460000000     0.013820000000     0          
Zr946    Zr     0.441890000000     0.011310000000     0.108160000000     0          
O947     O      0.658200000000     0.229800000000     0.982560000000     0          
O948     O      0.437200000000     0.991700000000     0.142470000000     0          
H949     H      0.403800000000     0.963900000000     0.150700000000     0          
O950     O      0.486400000000     0.058600000000     0.078200000000     0          
O951     O      0.615200000000     0.118600000000     0.149700000000     0          
O952     O      0.644900000000     0.092800000000     0.119220000000     0          
C953     C      0.518800000000     0.130900000000     0.040940000000     0          
C954     C      0.724000000000     0.227300000000     0.927540000000     0          
H955     H      0.697700000000     0.212100000000     0.915300000000     0          
C956     C      0.651900000000     0.129600000000     0.134740000000     0          
C957     C      0.473300000000     0.996900000000     0.190260000000     0          
H958     H      0.435600000000     0.962500000000     0.189300000000     0          
C959     C      0.706700000000     0.186000000000     0.134870000000     0          
C960     C      0.750100000000     0.197900000000     0.118200000000     0          
C961     C      0.482600000000     0.054300000000     0.191770000000     0          
H962     H      0.453800000000     0.066200000000     0.192500000000     0          
C963     C      0.537600000000     0.166100000000     0.021590000000     0          
C964     C      0.347200000000     0.005000000000     0.095400000000     0          
H965     H      0.345800000000     0.040600000000     0.095000000000     0          
C966     C      0.715200000000     0.199900000000     0.948070000000     0          
H967     H      0.683000000000     0.162900000000     0.952500000000     0          
C968     C      0.340800000000     0.923500000000     0.107100000000     0          
H969     H      0.335100000000     0.891900000000     0.116500000000     0          
C970     C      0.719300000000     0.228800000000     0.151000000000     0          
C971     C      0.332300000000     0.966500000000     0.112500000000     0          
H972     H      0.317700000000     0.970500000000     0.126500000000     0          
C973     C      0.359500000000     0.931600000000     0.085500000000     0          
H974     H      0.367200000000     0.905600000000     0.077100000000     0          
C975     C      0.364900000000     0.980500000000     0.078600000000     0          
H976     H      0.378800000000     0.997200000000     0.064300000000     0          
H977     H      0.591940000000     0.089060000000     0.561910000000     0          
H978     H      0.647540000000     0.201650000000     0.502060000000     0          
H979     H      0.449890000000     0.140170000000     0.618390000000     0          
H980     H      0.515560000000     0.175200000000     0.652840000000     0          
Zr981    Zr     0.108560000000     0.344640000000     0.441490000000     0          
O982     O      0.324870000000     0.563130000000     0.315890000000     0          
O983     O      0.103870000000     0.325030000000     0.475800000000     0          
H984     H      0.070470000000     0.297230000000     0.484030000000     0          
O985     O      0.153070000000     0.391930000000     0.411530000000     0          
O986     O      0.281870000000     0.451930000000     0.483030000000     0          
O987     O      0.311570000000     0.426130000000     0.452550000000     0          
C988     C      0.185470000000     0.464230000000     0.374270000000     0          
C989     C      0.390670000000     0.560630000000     0.260870000000     0          
H990     H      0.364370000000     0.545430000000     0.248630000000     0          
C991     C      0.318570000000     0.462930000000     0.468070000000     0          
C992     C      0.139970000000     0.330230000000     0.523590000000     0          
H993     H      0.102270000000     0.295830000000     0.522630000000     0          
C994     C      0.373370000000     0.519330000000     0.468200000000     0          
C995     C      0.416770000000     0.531230000000     0.451530000000     0          
C996     C      0.149270000000     0.387630000000     0.525100000000     0          
H997     H      0.120470000000     0.399530000000     0.525830000000     0          
C998     C      0.204270000000     0.499430000000     0.354920000000     0          
C999     C      0.013870000000     0.338330000000     0.428730000000     0          
H1000    H      0.012470000000     0.373930000000     0.428330000000     0          
C1001    C      0.381870000000     0.533230000000     0.281400000000     0          
H1002    H      0.349670000000     0.496230000000     0.285830000000     0          
C1003    C      0.007470000000     0.256830000000     0.440430000000     0          
H1004    H      0.001770000000     0.225230000000     0.449830000000     0          
C1005    C      0.385970000000     0.562130000000     0.484330000000     0          
C1006    C      0.998970000000     0.299830000000     0.445830000000     0          
H1007    H      0.984370000000     0.303830000000     0.459830000000     0          
C1008    C      0.026170000000     0.264930000000     0.418830000000     0          
H1009    H      0.033870000000     0.238930000000     0.410430000000     0          
C1010    C      0.031570000000     0.313830000000     0.411930000000     0          
H1011    H      0.045470000000     0.330530000000     0.397630000000     0          
H1012    H      0.258600000000     0.422400000000     0.895240000000     0          
H1013    H      0.314210000000     0.534980000000     0.835390000000     0          
H1014    H      0.116550000000     0.473510000000     0.951720000000     0          
H1015    H      0.182230000000     0.508540000000     0.986180000000     0          
Zr1016   Zr     0.775220000000     0.677980000000     0.774830000000     0          
O1017    O      0.991530000000     0.896470000000     0.649230000000     0          
O1018    O      0.770530000000     0.658370000000     0.809140000000     0          
H1019    H      0.737130000000     0.630570000000     0.817370000000     0          
O1020    O      0.819730000000     0.725270000000     0.744870000000     0          
O1021    O      0.948530000000     0.785270000000     0.816370000000     0          
O1022    O      0.978230000000     0.759470000000     0.785890000000     0          
C1023    C      0.852130000000     0.797570000000     0.707610000000     0          
C1024    C      0.057330000000     0.893970000000     0.594210000000     0          
H1025    H      0.031030000000     0.878770000000     0.581970000000     0          
C1026    C      0.985230000000     0.796270000000     0.801410000000     0          
C1027    C      0.806630000000     0.663570000000     0.856930000000     0          
H1028    H      0.768930000000     0.629170000000     0.855970000000     0          
C1029    C      0.040030000000     0.852670000000     0.801540000000     0          
C1030    C      0.083430000000     0.864570000000     0.784870000000     0          
C1031    C      0.815930000000     0.720970000000     0.858440000000     0          
H1032    H      0.787130000000     0.732870000000     0.859170000000     0          
C1033    C      0.870930000000     0.832770000000     0.688260000000     0          
C1034    C      0.680530000000     0.671670000000     0.762070000000     0          
H1035    H      0.679130000000     0.707270000000     0.761670000000     0          
C1036    C      0.048530000000     0.866570000000     0.614740000000     0          
H1037    H      0.016330000000     0.829570000000     0.619170000000     0          
C1038    C      0.674130000000     0.590170000000     0.773770000000     0          
H1039    H      0.668430000000     0.558570000000     0.783170000000     0          
C1040    C      0.052630000000     0.895470000000     0.817670000000     0          
C1041    C      0.665630000000     0.633170000000     0.779170000000     0          
H1042    H      0.651030000000     0.637170000000     0.793170000000     0          
C1043    C      0.692830000000     0.598270000000     0.752170000000     0          
H1044    H      0.700530000000     0.572270000000     0.743770000000     0          
C1045    C      0.698230000000     0.647170000000     0.745270000000     0          
H1046    H      0.712130000000     0.663870000000     0.730970000000     0          
H1047    H      0.925270000000     0.755730000000     0.228580000000     0          
H1048    H      0.980880000000     0.868320000000     0.168720000000     0          
H1049    H      0.783220000000     0.806840000000     0.285050000000     0          
H1050    H      0.848900000000     0.841870000000     0.319510000000     0          
Zr1051   Zr     0.569420000000     0.558110000000     0.108160000000     0          
O1052    O      0.571600000000     0.341800000000     0.982560000000     0          
O1053    O      0.554500000000     0.562800000000     0.142470000000     0          
H1054    H      0.560100000000     0.596200000000     0.150700000000     0          
O1055    O      0.572200000000     0.513600000000     0.078200000000     0          
O1056    O      0.503400000000     0.384800000000     0.149700000000     0          
O1057    O      0.447900000000     0.355100000000     0.119220000000     0          
C1058    C      0.612100000000     0.481200000000     0.040940000000     0          
C1059    C      0.503300000000     0.276000000000     0.927540000000     0          
H1060    H      0.514400000000     0.302300000000     0.915300000000     0          
C1061    C      0.477700000000     0.348100000000     0.134740000000     0          
C1062    C      0.523600000000     0.526700000000     0.190260000000     0          
H1063    H      0.526900000000     0.564400000000     0.189300000000     0          
C1064    C      0.479300000000     0.293300000000     0.134870000000     0          
C1065    C      0.447800000000     0.249900000000     0.118200000000     0          
C1066    C      0.571700000000     0.517400000000     0.191770000000     0          
H1067    H      0.612400000000     0.546200000000     0.192500000000     0          
C1068    C      0.628500000000     0.462400000000     0.021590000000     0          
C1069    C      0.657800000000     0.652800000000     0.095400000000     0          
H1070    H      0.694800000000     0.654200000000     0.095000000000     0          
C1071    C      0.484700000000     0.284800000000     0.948070000000     0          
H1072    H      0.479900000000     0.317000000000     0.952500000000     0          
C1073    C      0.582700000000     0.659200000000     0.107100000000     0          
H1074    H      0.556800000000     0.664900000000     0.116500000000     0          
C1075    C      0.509500000000     0.280700000000     0.151000000000     0          
C1076    C      0.634200000000     0.667700000000     0.112500000000     0          
H1077    H      0.652800000000     0.682300000000     0.126500000000     0          
C1078    C      0.572100000000     0.640500000000     0.085500000000     0          
H1079    H      0.538400000000     0.632800000000     0.077100000000     0          
C1080    C      0.615600000000     0.635100000000     0.078600000000     0          
H1081    H      0.618400000000     0.621200000000     0.064300000000     0          
H1082    H      0.497130000000     0.408060000000     0.561910000000     0          
H1083    H      0.554110000000     0.352460000000     0.502060000000     0          
H1084    H      0.690290000000     0.550110000000     0.618390000000     0          
H1085    H      0.659640000000     0.484440000000     0.652840000000     0          
Zr1086   Zr     0.236090000000     0.891440000000     0.441490000000     0          
O1087    O      0.238270000000     0.675130000000     0.315890000000     0          
O1088    O      0.221170000000     0.896130000000     0.475800000000     0          
H1089    H      0.226770000000     0.929530000000     0.484030000000     0          
O1090    O      0.238870000000     0.846930000000     0.411530000000     0          
O1091    O      0.170070000000     0.718130000000     0.483030000000     0          
O1092    O      0.114570000000     0.688430000000     0.452550000000     0          
C1093    C      0.278770000000     0.814530000000     0.374270000000     0          
C1094    C      0.169970000000     0.609330000000     0.260870000000     0          
H1095    H      0.181070000000     0.635630000000     0.248630000000     0          
C1096    C      0.144370000000     0.681430000000     0.468070000000     0          
C1097    C      0.190270000000     0.860030000000     0.523590000000     0          
H1098    H      0.193570000000     0.897730000000     0.522630000000     0          
C1099    C      0.145970000000     0.626630000000     0.468200000000     0          
C1100    C      0.114470000000     0.583230000000     0.451530000000     0          
C1101    C      0.238370000000     0.850730000000     0.525100000000     0          
H1102    H      0.279070000000     0.879530000000     0.525830000000     0          
C1103    C      0.295170000000     0.795730000000     0.354920000000     0          
C1104    C      0.324470000000     0.986130000000     0.428730000000     0          
H1105    H      0.361470000000     0.987530000000     0.428330000000     0          
C1106    C      0.151370000000     0.618130000000     0.281400000000     0          
H1107    H      0.146570000000     0.650330000000     0.285830000000     0          
C1108    C      0.249370000000     0.992530000000     0.440430000000     0          
H1109    H      0.223470000000     0.998230000000     0.449830000000     0          
C1110    C      0.176170000000     0.614030000000     0.484330000000     0          
C1111    C      0.300870000000     0.001030000000     0.445830000000     0          
H1112    H      0.319470000000     0.015630000000     0.459830000000     0          
C1113    C      0.238770000000     0.973830000000     0.418830000000     0          
H1114    H      0.205070000000     0.966130000000     0.410430000000     0          
C1115    C      0.282270000000     0.968430000000     0.411930000000     0          
H1116    H      0.285070000000     0.954530000000     0.397630000000     0          
H1117    H      0.163790000000     0.741400000000     0.895240000000     0          
H1118    H      0.220770000000     0.685790000000     0.835390000000     0          
H1119    H      0.356950000000     0.883450000000     0.951720000000     0          
H1120    H      0.326300000000     0.817770000000     0.986180000000     0          
Zr1121   Zr     0.902750000000     0.224780000000     0.774830000000     0          
O1122    O      0.904930000000     0.008470000000     0.649230000000     0          
O1123    O      0.887830000000     0.229470000000     0.809140000000     0          
H1124    H      0.893430000000     0.262870000000     0.817370000000     0          
O1125    O      0.905530000000     0.180270000000     0.744870000000     0          
O1126    O      0.836730000000     0.051470000000     0.816370000000     0          
O1127    O      0.781230000000     0.021770000000     0.785890000000     0          
C1128    C      0.945430000000     0.147870000000     0.707610000000     0          
C1129    C      0.836630000000     0.942670000000     0.594210000000     0          
H1130    H      0.847730000000     0.968970000000     0.581970000000     0          
C1131    C      0.811030000000     0.014770000000     0.801410000000     0          
C1132    C      0.856930000000     0.193370000000     0.856930000000     0          
H1133    H      0.860230000000     0.231070000000     0.855970000000     0          
C1134    C      0.812630000000     0.959970000000     0.801540000000     0          
C1135    C      0.781130000000     0.916570000000     0.784870000000     0          
C1136    C      0.905030000000     0.184070000000     0.858440000000     0          
H1137    H      0.945730000000     0.212870000000     0.859170000000     0          
C1138    C      0.961830000000     0.129070000000     0.688260000000     0          
C1139    C      0.991130000000     0.319470000000     0.762070000000     0          
H1140    H      0.028130000000     0.320870000000     0.761670000000     0          
C1141    C      0.818030000000     0.951470000000     0.614740000000     0          
H1142    H      0.813230000000     0.983670000000     0.619170000000     0          
C1143    C      0.916030000000     0.325870000000     0.773770000000     0          
H1144    H      0.890130000000     0.331570000000     0.783170000000     0          
C1145    C      0.842830000000     0.947370000000     0.817670000000     0          
C1146    C      0.967530000000     0.334370000000     0.779170000000     0          
H1147    H      0.986130000000     0.348970000000     0.793170000000     0          
C1148    C      0.905430000000     0.307170000000     0.752170000000     0          
H1149    H      0.871730000000     0.299470000000     0.743770000000     0          
C1150    C      0.948930000000     0.301770000000     0.745270000000     0          
H1151    H      0.951730000000     0.287870000000     0.730970000000     0          
H1152    H      0.830460000000     0.074730000000     0.228580000000     0          
H1153    H      0.887440000000     0.019120000000     0.168720000000     0          
H1154    H      0.023620000000     0.216780000000     0.285050000000     0          
H1155    H      0.992970000000     0.151100000000     0.319510000000     0          
Zr1156   Zr     0.988690000000     0.430580000000     0.108160000000     0          
O1157    O      0.770200000000     0.428400000000     0.982560000000     0          
O1158    O      0.008300000000     0.445500000000     0.142470000000     0          
H1159    H      0.036100000000     0.439900000000     0.150700000000     0          
O1160    O      0.941400000000     0.427800000000     0.078200000000     0          
O1161    O      0.881400000000     0.496600000000     0.149700000000     0          
O1162    O      0.907200000000     0.552100000000     0.119220000000     0          
C1163    C      0.869100000000     0.387900000000     0.040940000000     0          
C1164    C      0.772700000000     0.496700000000     0.927540000000     0          
H1165    H      0.787900000000     0.485600000000     0.915300000000     0          
C1166    C      0.870400000000     0.522300000000     0.134740000000     0          
C1167    C      0.003100000000     0.476400000000     0.190260000000     0          
H1168    H      0.037500000000     0.473100000000     0.189300000000     0          
C1169    C      0.814000000000     0.520700000000     0.134870000000     0          
C1170    C      0.802100000000     0.552200000000     0.118200000000     0          
C1171    C      0.945700000000     0.428300000000     0.191770000000     0          
H1172    H      0.933800000000     0.387600000000     0.192500000000     0          
C1173    C      0.833900000000     0.371500000000     0.021590000000     0          
C1174    C      0.995000000000     0.342200000000     0.095400000000     0          
H1175    H      0.959400000000     0.305200000000     0.095000000000     0          
C1176    C      0.800100000000     0.515300000000     0.948070000000     0          
H1177    H      0.837100000000     0.520100000000     0.952500000000     0          
C1178    C      0.076500000000     0.417300000000     0.107100000000     0          
H1179    H      0.108100000000     0.443200000000     0.116500000000     0          
C1180    C      0.771200000000     0.490500000000     0.151000000000     0          
C1181    C      0.033500000000     0.365800000000     0.112500000000     0          
H1182    H      0.029500000000     0.347200000000     0.126500000000     0          
C1183    C      0.068400000000     0.427900000000     0.085500000000     0          
H1184    H      0.094400000000     0.461600000000     0.077100000000     0          
C1185    C      0.019500000000     0.384400000000     0.078600000000     0          
H1186    H      0.002800000000     0.381600000000     0.064300000000     0          
H1187    H      0.910940000000     0.502870000000     0.561910000000     0          
H1188    H      0.798350000000     0.445890000000     0.502060000000     0          
H1189    H      0.859830000000     0.309710000000     0.618390000000     0          
H1190    H      0.824800000000     0.340360000000     0.652840000000     0          
Zr1191   Zr     0.655360000000     0.763910000000     0.441490000000     0          
O1192    O      0.436870000000     0.761730000000     0.315890000000     0          
O1193    O      0.674970000000     0.778830000000     0.475800000000     0          
H1194    H      0.702770000000     0.773230000000     0.484030000000     0          
O1195    O      0.608070000000     0.761130000000     0.411530000000     0          
O1196    O      0.548070000000     0.829930000000     0.483030000000     0          
O1197    O      0.573870000000     0.885430000000     0.452550000000     0          
C1198    C      0.535770000000     0.721230000000     0.374270000000     0          
C1199    C      0.439370000000     0.830030000000     0.260870000000     0          
H1200    H      0.454570000000     0.818930000000     0.248630000000     0          
C1201    C      0.537070000000     0.855630000000     0.468070000000     0          
C1202    C      0.669770000000     0.809730000000     0.523590000000     0          
H1203    H      0.704170000000     0.806430000000     0.522630000000     0          
C1204    C      0.480670000000     0.854030000000     0.468200000000     0          
C1205    C      0.468770000000     0.885530000000     0.451530000000     0          
C1206    C      0.612370000000     0.761630000000     0.525100000000     0          
H1207    H      0.600470000000     0.720930000000     0.525830000000     0          
C1208    C      0.500570000000     0.704830000000     0.354920000000     0          
C1209    C      0.661670000000     0.675530000000     0.428730000000     0          
H1210    H      0.626070000000     0.638530000000     0.428330000000     0          
C1211    C      0.466770000000     0.848630000000     0.281400000000     0          
H1212    H      0.503770000000     0.853430000000     0.285830000000     0          
C1213    C      0.743170000000     0.750630000000     0.440430000000     0          
H1214    H      0.774770000000     0.776530000000     0.449830000000     0          
C1215    C      0.437870000000     0.823830000000     0.484330000000     0          
C1216    C      0.700170000000     0.699130000000     0.445830000000     0          
H1217    H      0.696170000000     0.680530000000     0.459830000000     0          
C1218    C      0.735070000000     0.761230000000     0.418830000000     0          
H1219    H      0.761070000000     0.794930000000     0.410430000000     0          
C1220    C      0.686170000000     0.717730000000     0.411930000000     0          
H1221    H      0.669470000000     0.714930000000     0.397630000000     0          
H1222    H      0.577600000000     0.836210000000     0.895240000000     0          
H1223    H      0.465020000000     0.779230000000     0.835390000000     0          
H1224    H      0.526490000000     0.643050000000     0.951720000000     0          
H1225    H      0.491460000000     0.673700000000     0.986180000000     0          
Zr1226   Zr     0.322020000000     0.097250000000     0.774830000000     0          
O1227    O      0.103530000000     0.095070000000     0.649230000000     0          
O1228    O      0.341630000000     0.112170000000     0.809140000000     0          
H1229    H      0.369430000000     0.106570000000     0.817370000000     0          
O1230    O      0.274730000000     0.094470000000     0.744870000000     0          
O1231    O      0.214730000000     0.163270000000     0.816370000000     0          
O1232    O      0.240530000000     0.218770000000     0.785890000000     0          
C1233    C      0.202430000000     0.054570000000     0.707610000000     0          
C1234    C      0.106030000000     0.163370000000     0.594210000000     0          
H1235    H      0.121230000000     0.152270000000     0.581970000000     0          
C1236    C      0.203730000000     0.188970000000     0.801410000000     0          
C1237    C      0.336430000000     0.143070000000     0.856930000000     0          
H1238    H      0.370830000000     0.139770000000     0.855970000000     0          
C1239    C      0.147330000000     0.187370000000     0.801540000000     0          
C1240    C      0.135430000000     0.218870000000     0.784870000000     0          
C1241    C      0.279030000000     0.094970000000     0.858440000000     0          
H1242    H      0.267130000000     0.054270000000     0.859170000000     0          
C1243    C      0.167230000000     0.038170000000     0.688260000000     0          
C1244    C      0.328330000000     0.008870000000     0.762070000000     0          
H1245    H      0.292730000000     0.971870000000     0.761670000000     0          
C1246    C      0.133430000000     0.181970000000     0.614740000000     0          
H1247    H      0.170430000000     0.186770000000     0.619170000000     0          
C1248    C      0.409830000000     0.083970000000     0.773770000000     0          
H1249    H      0.441430000000     0.109870000000     0.783170000000     0          
C1250    C      0.104530000000     0.157170000000     0.817670000000     0          
C1251    C      0.366830000000     0.032470000000     0.779170000000     0          
H1252    H      0.362830000000     0.013870000000     0.793170000000     0          
C1253    C      0.401730000000     0.094570000000     0.752170000000     0          
H1254    H      0.427730000000     0.128270000000     0.743770000000     0          
C1255    C      0.352830000000     0.051070000000     0.745270000000     0          
H1256    H      0.336130000000     0.048270000000     0.730970000000     0          
H1257    H      0.244270000000     0.169540000000     0.228580000000     0          
H1258    H      0.131680000000     0.112560000000     0.168720000000     0          
H1259    H      0.193160000000     0.976380000000     0.285050000000     0          
H1260    H      0.158130000000     0.007030000000     0.319510000000     0          
Zr1261   Zr     0.709220000000     0.290780000000     0.956220000000     0          
C1262    C      0.762500000000     0.237500000000     0.960500000000     0          
H1263    H      0.768500000000     0.231500000000     0.975700000000     0          
Zr1264   Zr     0.375890000000     0.624110000000     0.289550000000     0          
C1265    C      0.429170000000     0.570830000000     0.293830000000     0          
H1266    H      0.435170000000     0.564830000000     0.309030000000     0          
Zr1267   Zr     0.042550000000     0.957450000000     0.622890000000     0          
C1268    C      0.095830000000     0.904170000000     0.627170000000     0          
H1269    H      0.101830000000     0.898170000000     0.642370000000     0          
Zr1270   Zr     0.709220000000     0.418440000000     0.956220000000     0          
C1271    C      0.762500000000     0.525000000000     0.960500000000     0          
H1272    H      0.768500000000     0.537000000000     0.975700000000     0          
Zr1273   Zr     0.375890000000     0.751770000000     0.289550000000     0          
C1274    C      0.429170000000     0.858330000000     0.293830000000     0          
H1275    H      0.435170000000     0.870330000000     0.309030000000     0          
Zr1276   Zr     0.042550000000     0.085110000000     0.622890000000     0          
C1277    C      0.095830000000     0.191670000000     0.627170000000     0          
H1278    H      0.101830000000     0.203670000000     0.642370000000     0          
Zr1279   Zr     0.581560000000     0.290780000000     0.956220000000     0          
C1280    C      0.475000000000     0.237500000000     0.960500000000     0          
H1281    H      0.463000000000     0.231500000000     0.975700000000     0          
Zr1282   Zr     0.248230000000     0.624110000000     0.289550000000     0          
C1283    C      0.141670000000     0.570830000000     0.293830000000     0          
H1284    H      0.129670000000     0.564830000000     0.309030000000     0          
Zr1285   Zr     0.914890000000     0.957450000000     0.622890000000     0          
C1286    C      0.808330000000     0.904170000000     0.627170000000     0          
H1287    H      0.796330000000     0.898170000000     0.642370000000     0          
Zr1288   Zr     0.290780000000     0.709220000000     0.043780000000     0          
C1289    C      0.237500000000     0.762500000000     0.039500000000     0          
H1290    H      0.231500000000     0.768500000000     0.024300000000     0          
Zr1291   Zr     0.957450000000     0.042550000000     0.377110000000     0          
C1292    C      0.904170000000     0.095830000000     0.372830000000     0          
H1293    H      0.898170000000     0.101830000000     0.357630000000     0          
Zr1294   Zr     0.624110000000     0.375890000000     0.710450000000     0          
C1295    C      0.570830000000     0.429170000000     0.706170000000     0          
H1296    H      0.564830000000     0.435170000000     0.690970000000     0          
Zr1297   Zr     0.418440000000     0.709220000000     0.043780000000     0          
C1298    C      0.525000000000     0.762500000000     0.039500000000     0          
H1299    H      0.537000000000     0.768500000000     0.024300000000     0          
Zr1300   Zr     0.085110000000     0.042550000000     0.377110000000     0          
C1301    C      0.191670000000     0.095830000000     0.372830000000     0          
H1302    H      0.203670000000     0.101830000000     0.357630000000     0          
Zr1303   Zr     0.751770000000     0.375890000000     0.710450000000     0          
C1304    C      0.858330000000     0.429170000000     0.706170000000     0          
H1305    H      0.870330000000     0.435170000000     0.690970000000     0          
Zr1306   Zr     0.290780000000     0.581560000000     0.043780000000     0          
C1307    C      0.237500000000     0.475000000000     0.039500000000     0          
H1308    H      0.231500000000     0.463000000000     0.024300000000     0          
Zr1309   Zr     0.957450000000     0.914890000000     0.377110000000     0          
C1310    C      0.904170000000     0.808330000000     0.372830000000     0          
H1311    H      0.898170000000     0.796330000000     0.357630000000     0          
Zr1312   Zr     0.624110000000     0.248230000000     0.710450000000     0          
C1313    C      0.570830000000     0.141670000000     0.706170000000     0          
H1314    H      0.564830000000     0.129670000000     0.690970000000     0          
Zr1315   Zr     0.951800000000     0.475900000000     0.154280000000     0          
O1316    O      0.744800000000     0.372400000000     0.938970000000     0          
H1317    H      0.770500000000     0.385250000000     0.926500000000     0          
O1318    O      0.944000000000     0.472000000000     0.119630000000     0          
O1319    O      0.043200000000     0.521600000000     0.100760000000     0          
H1320    H      0.082500000000     0.541250000000     0.095400000000     0          
C1321    C      0.784300000000     0.392150000000     0.991190000000     0          
C1322    C      0.818900000000     0.409450000000     0.012030000000     0          
C1323    C      0.885500000000     0.442750000000     0.050640000000     0          
C1324    C      0.925300000000     0.462650000000     0.070590000000     0          
C1325    C      0.908900000000     0.454450000000     0.192050000000     0          
H1326    H      0.867100000000     0.433550000000     0.192400000000     0          
Zr1327   Zr     0.618470000000     0.809230000000     0.487610000000     0          
O1328    O      0.411470000000     0.705730000000     0.272300000000     0          
H1329    H      0.437170000000     0.718580000000     0.259830000000     0          
O1330    O      0.610670000000     0.805330000000     0.452960000000     0          
O1331    O      0.709870000000     0.854930000000     0.434090000000     0          
H1332    H      0.749170000000     0.874580000000     0.428730000000     0          
C1333    C      0.450970000000     0.725480000000     0.324520000000     0          
C1334    C      0.485570000000     0.742780000000     0.345360000000     0          
C1335    C      0.552170000000     0.776080000000     0.383970000000     0          
C1336    C      0.591970000000     0.795980000000     0.403920000000     0          
C1337    C      0.575570000000     0.787780000000     0.525380000000     0          
H1338    H      0.533770000000     0.766880000000     0.525730000000     0          
Zr1339   Zr     0.285130000000     0.142570000000     0.820950000000     0          
O1340    O      0.078130000000     0.039070000000     0.605640000000     0          
H1341    H      0.103830000000     0.051920000000     0.593170000000     0          
O1342    O      0.277330000000     0.138670000000     0.786300000000     0          
O1343    O      0.376530000000     0.188270000000     0.767430000000     0          
H1344    H      0.415830000000     0.207920000000     0.762070000000     0          
C1345    C      0.117630000000     0.058820000000     0.657860000000     0          
C1346    C      0.152230000000     0.076120000000     0.678700000000     0          
C1347    C      0.218830000000     0.109420000000     0.717310000000     0          
C1348    C      0.258630000000     0.129320000000     0.737260000000     0          
C1349    C      0.242230000000     0.121120000000     0.858720000000     0          
H1350    H      0.200430000000     0.100220000000     0.859070000000     0          
Zr1351   Zr     0.524100000000     0.475900000000     0.154280000000     0          
O1352    O      0.627600000000     0.372400000000     0.938970000000     0          
H1353    H      0.614750000000     0.385250000000     0.926500000000     0          
O1354    O      0.528000000000     0.472000000000     0.119630000000     0          
O1355    O      0.478400000000     0.521600000000     0.100760000000     0          
H1356    H      0.458750000000     0.541250000000     0.095400000000     0          
C1357    C      0.607850000000     0.392150000000     0.991190000000     0          
C1358    C      0.590550000000     0.409450000000     0.012030000000     0          
C1359    C      0.557250000000     0.442750000000     0.050640000000     0          
C1360    C      0.537350000000     0.462650000000     0.070590000000     0          
C1361    C      0.545550000000     0.454450000000     0.192050000000     0          
H1362    H      0.566450000000     0.433550000000     0.192400000000     0          
Zr1363   Zr     0.190770000000     0.809230000000     0.487610000000     0          
O1364    O      0.294270000000     0.705730000000     0.272300000000     0          
H1365    H      0.281420000000     0.718580000000     0.259830000000     0          
O1366    O      0.194670000000     0.805330000000     0.452960000000     0          
O1367    O      0.145070000000     0.854930000000     0.434090000000     0          
H1368    H      0.125420000000     0.874580000000     0.428730000000     0          
C1369    C      0.274520000000     0.725480000000     0.324520000000     0          
C1370    C      0.257220000000     0.742780000000     0.345360000000     0          
C1371    C      0.223920000000     0.776080000000     0.383970000000     0          
C1372    C      0.204020000000     0.795980000000     0.403920000000     0          
C1373    C      0.212220000000     0.787780000000     0.525380000000     0          
H1374    H      0.233120000000     0.766880000000     0.525730000000     0          
Zr1375   Zr     0.857430000000     0.142570000000     0.820950000000     0          
O1376    O      0.960930000000     0.039070000000     0.605640000000     0          
H1377    H      0.948080000000     0.051920000000     0.593170000000     0          
O1378    O      0.861330000000     0.138670000000     0.786300000000     0          
O1379    O      0.811730000000     0.188270000000     0.767430000000     0          
H1380    H      0.792080000000     0.207920000000     0.762070000000     0          
C1381    C      0.941180000000     0.058820000000     0.657860000000     0          
C1382    C      0.923880000000     0.076120000000     0.678700000000     0          
C1383    C      0.890580000000     0.109420000000     0.717310000000     0          
C1384    C      0.870680000000     0.129320000000     0.737260000000     0          
C1385    C      0.878880000000     0.121120000000     0.858720000000     0          
H1386    H      0.899780000000     0.100220000000     0.859070000000     0          
Zr1387   Zr     0.524100000000     0.048200000000     0.154280000000     0          
O1388    O      0.627600000000     0.255200000000     0.938970000000     0          
H1389    H      0.614750000000     0.229500000000     0.926500000000     0          
O1390    O      0.528000000000     0.056000000000     0.119630000000     0          
O1391    O      0.478400000000     0.956800000000     0.100760000000     0          
H1392    H      0.458750000000     0.917500000000     0.095400000000     0          
C1393    C      0.607850000000     0.215700000000     0.991190000000     0          
C1394    C      0.590550000000     0.181100000000     0.012030000000     0          
C1395    C      0.557250000000     0.114500000000     0.050640000000     0          
C1396    C      0.537350000000     0.074700000000     0.070590000000     0          
C1397    C      0.545550000000     0.091100000000     0.192050000000     0          
H1398    H      0.566450000000     0.132900000000     0.192400000000     0          
Zr1399   Zr     0.190770000000     0.381530000000     0.487610000000     0          
O1400    O      0.294270000000     0.588530000000     0.272300000000     0          
H1401    H      0.281420000000     0.562830000000     0.259830000000     0          
O1402    O      0.194670000000     0.389330000000     0.452960000000     0          
O1403    O      0.145070000000     0.290130000000     0.434090000000     0          
H1404    H      0.125420000000     0.250830000000     0.428730000000     0          
C1405    C      0.274520000000     0.549030000000     0.324520000000     0          
C1406    C      0.257220000000     0.514430000000     0.345360000000     0          
C1407    C      0.223920000000     0.447830000000     0.383970000000     0          
C1408    C      0.204020000000     0.408030000000     0.403920000000     0          
C1409    C      0.212220000000     0.424430000000     0.525380000000     0          
H1410    H      0.233120000000     0.466230000000     0.525730000000     0          
Zr1411   Zr     0.857430000000     0.714870000000     0.820950000000     0          
O1412    O      0.960930000000     0.921870000000     0.605640000000     0          
H1413    H      0.948080000000     0.896170000000     0.593170000000     0          
O1414    O      0.861330000000     0.722670000000     0.786300000000     0          
O1415    O      0.811730000000     0.623470000000     0.767430000000     0          
H1416    H      0.792080000000     0.584170000000     0.762070000000     0          
C1417    C      0.941180000000     0.882370000000     0.657860000000     0          
C1418    C      0.923880000000     0.847770000000     0.678700000000     0          
C1419    C      0.890580000000     0.781170000000     0.717310000000     0          
C1420    C      0.870680000000     0.741370000000     0.737260000000     0          
C1421    C      0.878880000000     0.757770000000     0.858720000000     0          
H1422    H      0.899780000000     0.799570000000     0.859070000000     0          
Zr1423   Zr     0.475900000000     0.951800000000     0.845720000000     0          
O1424    O      0.372400000000     0.744800000000     0.061030000000     0          
H1425    H      0.385250000000     0.770500000000     0.073500000000     0          
O1426    O      0.472000000000     0.944000000000     0.880370000000     0          
O1427    O      0.521600000000     0.043200000000     0.899240000000     0          
H1428    H      0.541250000000     0.082500000000     0.904600000000     0          
C1429    C      0.392150000000     0.784300000000     0.008810000000     0          
C1430    C      0.409450000000     0.818900000000     0.987970000000     0          
C1431    C      0.442750000000     0.885500000000     0.949360000000     0          
C1432    C      0.462650000000     0.925300000000     0.929410000000     0          
C1433    C      0.454450000000     0.908900000000     0.807950000000     0          
H1434    H      0.433550000000     0.867100000000     0.807600000000     0          
Zr1435   Zr     0.142570000000     0.285130000000     0.179050000000     0          
O1436    O      0.039070000000     0.078130000000     0.394360000000     0          
H1437    H      0.051920000000     0.103830000000     0.406830000000     0          
O1438    O      0.138670000000     0.277330000000     0.213700000000     0          
O1439    O      0.188270000000     0.376530000000     0.232570000000     0          
H1440    H      0.207920000000     0.415830000000     0.237930000000     0          
C1441    C      0.058820000000     0.117630000000     0.342140000000     0          
C1442    C      0.076120000000     0.152230000000     0.321300000000     0          
C1443    C      0.109420000000     0.218830000000     0.282690000000     0          
C1444    C      0.129320000000     0.258630000000     0.262740000000     0          
C1445    C      0.121120000000     0.242230000000     0.141280000000     0          
H1446    H      0.100220000000     0.200430000000     0.140930000000     0          
Zr1447   Zr     0.809230000000     0.618470000000     0.512390000000     0          
O1448    O      0.705730000000     0.411470000000     0.727700000000     0          
H1449    H      0.718580000000     0.437170000000     0.740170000000     0          
O1450    O      0.805330000000     0.610670000000     0.547040000000     0          
O1451    O      0.854930000000     0.709870000000     0.565910000000     0          
H1452    H      0.874580000000     0.749170000000     0.571270000000     0          
C1453    C      0.725480000000     0.450970000000     0.675480000000     0          
C1454    C      0.742780000000     0.485570000000     0.654640000000     0          
C1455    C      0.776080000000     0.552170000000     0.616030000000     0          
C1456    C      0.795980000000     0.591970000000     0.596080000000     0          
C1457    C      0.787780000000     0.575570000000     0.474620000000     0          
H1458    H      0.766880000000     0.533770000000     0.474270000000     0          
Zr1459   Zr     0.475900000000     0.524100000000     0.845720000000     0          
O1460    O      0.372400000000     0.627600000000     0.061030000000     0          
H1461    H      0.385250000000     0.614750000000     0.073500000000     0          
O1462    O      0.472000000000     0.528000000000     0.880370000000     0          
O1463    O      0.521600000000     0.478400000000     0.899240000000     0          
H1464    H      0.541250000000     0.458750000000     0.904600000000     0          
C1465    C      0.392150000000     0.607850000000     0.008810000000     0          
C1466    C      0.409450000000     0.590550000000     0.987970000000     0          
C1467    C      0.442750000000     0.557250000000     0.949360000000     0          
C1468    C      0.462650000000     0.537350000000     0.929410000000     0          
C1469    C      0.454450000000     0.545550000000     0.807950000000     0          
H1470    H      0.433550000000     0.566450000000     0.807600000000     0          
Zr1471   Zr     0.142570000000     0.857430000000     0.179050000000     0          
O1472    O      0.039070000000     0.960930000000     0.394360000000     0          
H1473    H      0.051920000000     0.948080000000     0.406830000000     0          
O1474    O      0.138670000000     0.861330000000     0.213700000000     0          
O1475    O      0.188270000000     0.811730000000     0.232570000000     0          
H1476    H      0.207920000000     0.792080000000     0.237930000000     0          
C1477    C      0.058820000000     0.941180000000     0.342140000000     0          
C1478    C      0.076120000000     0.923880000000     0.321300000000     0          
C1479    C      0.109420000000     0.890580000000     0.282690000000     0          
C1480    C      0.129320000000     0.870680000000     0.262740000000     0          
C1481    C      0.121120000000     0.878880000000     0.141280000000     0          
H1482    H      0.100220000000     0.899780000000     0.140930000000     0          
Zr1483   Zr     0.809230000000     0.190770000000     0.512390000000     0          
O1484    O      0.705730000000     0.294270000000     0.727700000000     0          
H1485    H      0.718580000000     0.281420000000     0.740170000000     0          
O1486    O      0.805330000000     0.194670000000     0.547040000000     0          
O1487    O      0.854930000000     0.145070000000     0.565910000000     0          
H1488    H      0.874580000000     0.125420000000     0.571270000000     0          
C1489    C      0.725480000000     0.274520000000     0.675480000000     0          
C1490    C      0.742780000000     0.257220000000     0.654640000000     0          
C1491    C      0.776080000000     0.223920000000     0.616030000000     0          
C1492    C      0.795980000000     0.204020000000     0.596080000000     0          
C1493    C      0.787780000000     0.212220000000     0.474620000000     0          
H1494    H      0.766880000000     0.233120000000     0.474270000000     0          
Zr1495   Zr     0.048200000000     0.524100000000     0.845720000000     0          
O1496    O      0.255200000000     0.627600000000     0.061030000000     0          
H1497    H      0.229500000000     0.614750000000     0.073500000000     0          
O1498    O      0.056000000000     0.528000000000     0.880370000000     0          
O1499    O      0.956800000000     0.478400000000     0.899240000000     0          
H1500    H      0.917500000000     0.458750000000     0.904600000000     0          
C1501    C      0.215700000000     0.607850000000     0.008810000000     0          
C1502    C      0.181100000000     0.590550000000     0.987970000000     0          
C1503    C      0.114500000000     0.557250000000     0.949360000000     0          
C1504    C      0.074700000000     0.537350000000     0.929410000000     0          
C1505    C      0.091100000000     0.545550000000     0.807950000000     0          
H1506    H      0.132900000000     0.566450000000     0.807600000000     0          
Zr1507   Zr     0.714870000000     0.857430000000     0.179050000000     0          
O1508    O      0.921870000000     0.960930000000     0.394360000000     0          
H1509    H      0.896170000000     0.948080000000     0.406830000000     0          
O1510    O      0.722670000000     0.861330000000     0.213700000000     0          
O1511    O      0.623470000000     0.811730000000     0.232570000000     0          
H1512    H      0.584170000000     0.792080000000     0.237930000000     0          
C1513    C      0.882370000000     0.941180000000     0.342140000000     0          
C1514    C      0.847770000000     0.923880000000     0.321300000000     0          
C1515    C      0.781170000000     0.890580000000     0.282690000000     0          
C1516    C      0.741370000000     0.870680000000     0.262740000000     0          
C1517    C      0.757770000000     0.878880000000     0.141280000000     0          
H1518    H      0.799570000000     0.899780000000     0.140930000000     0          
Zr1519   Zr     0.381530000000     0.190770000000     0.512390000000     0          
O1520    O      0.588530000000     0.294270000000     0.727700000000     0          
H1521    H      0.562830000000     0.281420000000     0.740170000000     0          
O1522    O      0.389330000000     0.194670000000     0.547040000000     0          
O1523    O      0.290130000000     0.145070000000     0.565910000000     0          
H1524    H      0.250830000000     0.125420000000     0.571270000000     0          
C1525    C      0.549030000000     0.274520000000     0.675480000000     0          
C1526    C      0.514430000000     0.257220000000     0.654640000000     0          
C1527    C      0.447830000000     0.223920000000     0.616030000000     0          
C1528    C      0.408030000000     0.204020000000     0.596080000000     0          
C1529    C      0.424430000000     0.212220000000     0.474620000000     0          
H1530    H      0.466230000000     0.233120000000     0.474270000000     0          
O1531    O      0.666670000000     0.333330000000     0.968490000000     0          
O1532    O      0.333330000000     0.666670000000     0.301820000000     0          
O1533    O      0.000000000000     0.000000000000     0.635160000000     0          
O1534    O      0.333330000000     0.666670000000     0.031510000000     0          
O1535    O      0.000000000000     0.000000000000     0.364840000000     0          
O1536    O      0.666670000000     0.333330000000     0.698180000000     0          


