data_CEMBII

_audit_creation_method RASPA-1.0
_audit_creation_date 2020-11-2
_audit_author_name 'Rocio Bueno-Perez'

_cell_length_a    32.6663
_cell_length_b    32.6663
_cell_length_c    32.6663
_cell_angle_alpha 90
_cell_angle_beta  90
_cell_angle_gamma 90
_cell_volume      34857.8

_symmetry_cell_setting          triclinic
_symmetry_space_group_name_Hall 'P 1'
_symmetry_space_group_name_H-M  'P 1'
_symmetry_Int_Tables_number     1

_symmetry_equiv_pos_as_xyz 'x,y,z'

loop_
_atom_site_label
_atom_site_type_symbol
_atom_site_fract_x
_atom_site_fract_y
_atom_site_fract_z
_atom_site_charge
C1       C      0.404230000000     0.095770000000     0.000000000000     0          
C2       C      0.372270000000     0.127730000000     0.000000000000     0          
C3       C      0.312100000000     0.187900000000     0.000000000000     0          
C4       C      0.280700000000     0.219300000000     0.000000000000     0          
C5       C      0.404230000000     0.595770000000     0.500000000000     0          
C6       C      0.372270000000     0.627730000000     0.500000000000     0          
C7       C      0.312100000000     0.687900000000     0.500000000000     0          
C8       C      0.280700000000     0.719300000000     0.500000000000     0          
C9       C      0.595770000000     0.904230000000     0.000000000000     0          
C10      C      0.627730000000     0.872270000000     0.000000000000     0          
C11      C      0.687900000000     0.812100000000     0.000000000000     0          
C12      C      0.719300000000     0.780700000000     0.000000000000     0          
C13      C      0.595770000000     0.404230000000     0.500000000000     0          
C14      C      0.627730000000     0.372270000000     0.500000000000     0          
C15      C      0.687900000000     0.312100000000     0.500000000000     0          
C16      C      0.719300000000     0.280700000000     0.500000000000     0          
C17      C      0.095770000000     0.404230000000     0.000000000000     0          
C18      C      0.127730000000     0.372270000000     0.000000000000     0          
C19      C      0.187900000000     0.312100000000     0.000000000000     0          
C20      C      0.219300000000     0.280700000000     0.000000000000     0          
C21      C      0.595770000000     0.095770000000     0.000000000000     0          
C22      C      0.627730000000     0.127730000000     0.000000000000     0          
C23      C      0.687900000000     0.187900000000     0.000000000000     0          
C24      C      0.719300000000     0.219300000000     0.000000000000     0          
C25      C      0.595770000000     0.595770000000     0.500000000000     0          
C26      C      0.627730000000     0.627730000000     0.500000000000     0          
C27      C      0.687900000000     0.687900000000     0.500000000000     0          
C28      C      0.719300000000     0.719300000000     0.500000000000     0          
C29      C      0.095770000000     0.095770000000     0.500000000000     0          
C30      C      0.127730000000     0.127730000000     0.500000000000     0          
C31      C      0.187900000000     0.187900000000     0.500000000000     0          
C32      C      0.219300000000     0.219300000000     0.500000000000     0          
C33      C      0.404230000000     0.904230000000     0.000000000000     0          
C34      C      0.372270000000     0.872270000000     0.000000000000     0          
C35      C      0.312100000000     0.812100000000     0.000000000000     0          
C36      C      0.280700000000     0.780700000000     0.000000000000     0          
C37      C      0.404230000000     0.404230000000     0.500000000000     0          
C38      C      0.372270000000     0.372270000000     0.500000000000     0          
C39      C      0.312100000000     0.312100000000     0.500000000000     0          
C40      C      0.280700000000     0.280700000000     0.500000000000     0          
C41      C      0.000000000000     0.404230000000     0.095770000000     0          
C42      C      0.000000000000     0.372270000000     0.127730000000     0          
C43      C      0.000000000000     0.312100000000     0.187900000000     0          
C44      C      0.000000000000     0.280700000000     0.219300000000     0          
C45      C      0.500000000000     0.404230000000     0.595770000000     0          
C46      C      0.500000000000     0.372270000000     0.627730000000     0          
C47      C      0.500000000000     0.312100000000     0.687900000000     0          
C48      C      0.500000000000     0.280700000000     0.719300000000     0          
C49      C      0.000000000000     0.595770000000     0.904230000000     0          
C50      C      0.000000000000     0.627730000000     0.872270000000     0          
C51      C      0.000000000000     0.687900000000     0.812100000000     0          
C52      C      0.000000000000     0.719300000000     0.780700000000     0          
C53      C      0.000000000000     0.095770000000     0.404230000000     0          
C54      C      0.000000000000     0.127730000000     0.372270000000     0          
C55      C      0.000000000000     0.187900000000     0.312100000000     0          
C56      C      0.000000000000     0.219300000000     0.280700000000     0          
C57      C      0.500000000000     0.595770000000     0.404230000000     0          
C58      C      0.500000000000     0.627730000000     0.372270000000     0          
C59      C      0.500000000000     0.687900000000     0.312100000000     0          
C60      C      0.500000000000     0.719300000000     0.280700000000     0          
C61      C      0.000000000000     0.595770000000     0.095770000000     0          
C62      C      0.000000000000     0.627730000000     0.127730000000     0          
C63      C      0.000000000000     0.687900000000     0.187900000000     0          
C64      C      0.000000000000     0.719300000000     0.219300000000     0          
C65      C      0.500000000000     0.595770000000     0.595770000000     0          
C66      C      0.500000000000     0.627730000000     0.627730000000     0          
C67      C      0.500000000000     0.687900000000     0.687900000000     0          
C68      C      0.500000000000     0.719300000000     0.719300000000     0          
C69      C      0.500000000000     0.095770000000     0.095770000000     0          
C70      C      0.500000000000     0.127730000000     0.127730000000     0          
C71      C      0.500000000000     0.187900000000     0.187900000000     0          
C72      C      0.500000000000     0.219300000000     0.219300000000     0          
C73      C      0.000000000000     0.404230000000     0.904230000000     0          
C74      C      0.000000000000     0.372270000000     0.872270000000     0          
C75      C      0.000000000000     0.312100000000     0.812100000000     0          
C76      C      0.000000000000     0.280700000000     0.780700000000     0          
C77      C      0.500000000000     0.404230000000     0.404230000000     0          
C78      C      0.500000000000     0.372270000000     0.372270000000     0          
C79      C      0.500000000000     0.312100000000     0.312100000000     0          
C80      C      0.500000000000     0.280700000000     0.280700000000     0          
C81      C      0.095770000000     0.000000000000     0.404230000000     0          
C82      C      0.127730000000     0.000000000000     0.372270000000     0          
C83      C      0.187900000000     0.000000000000     0.312100000000     0          
C84      C      0.219300000000     0.000000000000     0.280700000000     0          
C85      C      0.095770000000     0.500000000000     0.904230000000     0          
C86      C      0.127730000000     0.500000000000     0.872270000000     0          
C87      C      0.187900000000     0.500000000000     0.812100000000     0          
C88      C      0.219300000000     0.500000000000     0.780700000000     0          
C89      C      0.904230000000     0.000000000000     0.595770000000     0          
C90      C      0.872270000000     0.000000000000     0.627730000000     0          
C91      C      0.812100000000     0.000000000000     0.687900000000     0          
C92      C      0.780700000000     0.000000000000     0.719300000000     0          
C93      C      0.904230000000     0.500000000000     0.095770000000     0          
C94      C      0.872270000000     0.500000000000     0.127730000000     0          
C95      C      0.812100000000     0.500000000000     0.187900000000     0          
C96      C      0.780700000000     0.500000000000     0.219300000000     0          
C97      C      0.404230000000     0.000000000000     0.095770000000     0          
C98      C      0.372270000000     0.000000000000     0.127730000000     0          
C99      C      0.312100000000     0.000000000000     0.187900000000     0          
C100     C      0.280700000000     0.000000000000     0.219300000000     0          
C101     C      0.095770000000     0.000000000000     0.595770000000     0          
C102     C      0.127730000000     0.000000000000     0.627730000000     0          
C103     C      0.187900000000     0.000000000000     0.687900000000     0          
C104     C      0.219300000000     0.000000000000     0.719300000000     0          
C105     C      0.095770000000     0.500000000000     0.095770000000     0          
C106     C      0.127730000000     0.500000000000     0.127730000000     0          
C107     C      0.187900000000     0.500000000000     0.187900000000     0          
C108     C      0.219300000000     0.500000000000     0.219300000000     0          
C109     C      0.904230000000     0.000000000000     0.404230000000     0          
C110     C      0.872270000000     0.000000000000     0.372270000000     0          
C111     C      0.812100000000     0.000000000000     0.312100000000     0          
C112     C      0.780700000000     0.000000000000     0.280700000000     0          
C113     C      0.904230000000     0.500000000000     0.904230000000     0          
C114     C      0.872270000000     0.500000000000     0.872270000000     0          
C115     C      0.812100000000     0.500000000000     0.812100000000     0          
C116     C      0.780700000000     0.500000000000     0.780700000000     0          
C117     C      0.404230000000     0.500000000000     0.404230000000     0          
C118     C      0.372270000000     0.500000000000     0.372270000000     0          
C119     C      0.312100000000     0.500000000000     0.312100000000     0          
C120     C      0.280700000000     0.500000000000     0.280700000000     0          
C121     C      0.095770000000     0.904230000000     0.500000000000     0          
C122     C      0.127730000000     0.872270000000     0.500000000000     0          
C123     C      0.187900000000     0.812100000000     0.500000000000     0          
C124     C      0.219300000000     0.780700000000     0.500000000000     0          
C125     C      0.904230000000     0.595770000000     0.000000000000     0          
C126     C      0.872270000000     0.627730000000     0.000000000000     0          
C127     C      0.812100000000     0.687900000000     0.000000000000     0          
C128     C      0.780700000000     0.719300000000     0.000000000000     0          
C129     C      0.904230000000     0.095770000000     0.500000000000     0          
C130     C      0.872270000000     0.127730000000     0.500000000000     0          
C131     C      0.812100000000     0.187900000000     0.500000000000     0          
C132     C      0.780700000000     0.219300000000     0.500000000000     0          
C133     C      0.095770000000     0.595770000000     0.000000000000     0          
C134     C      0.127730000000     0.627730000000     0.000000000000     0          
C135     C      0.187900000000     0.687900000000     0.000000000000     0          
C136     C      0.219300000000     0.719300000000     0.000000000000     0          
C137     C      0.904230000000     0.404230000000     0.000000000000     0          
C138     C      0.872270000000     0.372270000000     0.000000000000     0          
C139     C      0.812100000000     0.312100000000     0.000000000000     0          
C140     C      0.780700000000     0.280700000000     0.000000000000     0          
C141     C      0.904230000000     0.904230000000     0.500000000000     0          
C142     C      0.872270000000     0.872270000000     0.500000000000     0          
C143     C      0.812100000000     0.812100000000     0.500000000000     0          
C144     C      0.780700000000     0.780700000000     0.500000000000     0          
C145     C      0.404230000000     0.000000000000     0.904230000000     0          
C146     C      0.372270000000     0.000000000000     0.872270000000     0          
C147     C      0.312100000000     0.000000000000     0.812100000000     0          
C148     C      0.280700000000     0.000000000000     0.780700000000     0          
C149     C      0.595770000000     0.000000000000     0.095770000000     0          
C150     C      0.627730000000     0.000000000000     0.127730000000     0          
C151     C      0.687900000000     0.000000000000     0.187900000000     0          
C152     C      0.719300000000     0.000000000000     0.219300000000     0          
C153     C      0.595770000000     0.500000000000     0.595770000000     0          
C154     C      0.627730000000     0.500000000000     0.627730000000     0          
C155     C      0.687900000000     0.500000000000     0.687900000000     0          
C156     C      0.719300000000     0.500000000000     0.719300000000     0          
C157     C      0.595770000000     0.000000000000     0.904230000000     0          
C158     C      0.627730000000     0.000000000000     0.872270000000     0          
C159     C      0.687900000000     0.000000000000     0.812100000000     0          
C160     C      0.719300000000     0.000000000000     0.780700000000     0          
C161     C      0.595770000000     0.500000000000     0.404230000000     0          
C162     C      0.627730000000     0.500000000000     0.372270000000     0          
C163     C      0.687900000000     0.500000000000     0.312100000000     0          
C164     C      0.719300000000     0.500000000000     0.280700000000     0          
C165     C      0.404230000000     0.500000000000     0.595770000000     0          
C166     C      0.372270000000     0.500000000000     0.627730000000     0          
C167     C      0.312100000000     0.500000000000     0.687900000000     0          
C168     C      0.280700000000     0.500000000000     0.719300000000     0          
C169     C      0.000000000000     0.095770000000     0.595770000000     0          
C170     C      0.000000000000     0.127730000000     0.627730000000     0          
C171     C      0.000000000000     0.187900000000     0.687900000000     0          
C172     C      0.000000000000     0.219300000000     0.719300000000     0          
C173     C      0.000000000000     0.904230000000     0.404230000000     0          
C174     C      0.000000000000     0.872270000000     0.372270000000     0          
C175     C      0.000000000000     0.812100000000     0.312100000000     0          
C176     C      0.000000000000     0.780700000000     0.280700000000     0          
C177     C      0.500000000000     0.904230000000     0.904230000000     0          
C178     C      0.500000000000     0.872270000000     0.872270000000     0          
C179     C      0.500000000000     0.812100000000     0.812100000000     0          
C180     C      0.500000000000     0.780700000000     0.780700000000     0          
C181     C      0.500000000000     0.095770000000     0.904230000000     0          
C182     C      0.500000000000     0.127730000000     0.872270000000     0          
C183     C      0.500000000000     0.187900000000     0.812100000000     0          
C184     C      0.500000000000     0.219300000000     0.780700000000     0          
C185     C      0.000000000000     0.904230000000     0.595770000000     0          
C186     C      0.000000000000     0.872270000000     0.627730000000     0          
C187     C      0.000000000000     0.812100000000     0.687900000000     0          
C188     C      0.000000000000     0.780700000000     0.719300000000     0          
C189     C      0.500000000000     0.904230000000     0.095770000000     0          
C190     C      0.500000000000     0.872270000000     0.127730000000     0          
C191     C      0.500000000000     0.812100000000     0.187900000000     0          
C192     C      0.500000000000     0.780700000000     0.219300000000     0          
C193     C      0.382100000000     0.167700000000     0.000000000000     0          
H194     H      0.409800000000     0.174300000000     0.000000000000     0          
C195     C      0.355400000000     0.198600000000     0.000000000000     0          
H196     H      0.364000000000     0.225700000000     0.000000000000     0          
O197     O      0.391110000000     0.058450000000     0.000000000000     0          
C198     C      0.382100000000     0.667700000000     0.500000000000     0          
H199     H      0.409800000000     0.674300000000     0.500000000000     0          
C200     C      0.355400000000     0.698600000000     0.500000000000     0          
H201     H      0.364000000000     0.725700000000     0.500000000000     0          
O202     O      0.391110000000     0.558450000000     0.500000000000     0          
C203     C      0.882100000000     0.167700000000     0.500000000000     0          
H204     H      0.909800000000     0.174300000000     0.500000000000     0          
C205     C      0.855400000000     0.198600000000     0.500000000000     0          
H206     H      0.864000000000     0.225700000000     0.500000000000     0          
O207     O      0.891110000000     0.058450000000     0.500000000000     0          
C208     C      0.882100000000     0.667700000000     0.000000000000     0          
H209     H      0.909800000000     0.674300000000     0.000000000000     0          
C210     C      0.855400000000     0.698600000000     0.000000000000     0          
H211     H      0.864000000000     0.725700000000     0.000000000000     0          
O212     O      0.891110000000     0.558450000000     0.000000000000     0          
C213     C      0.617900000000     0.832300000000     0.000000000000     0          
H214     H      0.590200000000     0.825700000000     0.000000000000     0          
C215     C      0.644600000000     0.801400000000     0.000000000000     0          
H216     H      0.636000000000     0.774300000000     0.000000000000     0          
O217     O      0.608890000000     0.941550000000     0.000000000000     0          
C218     C      0.617900000000     0.332300000000     0.500000000000     0          
H219     H      0.590200000000     0.325700000000     0.500000000000     0          
C220     C      0.644600000000     0.301400000000     0.500000000000     0          
H221     H      0.636000000000     0.274300000000     0.500000000000     0          
O222     O      0.608890000000     0.441550000000     0.500000000000     0          
C223     C      0.117900000000     0.832300000000     0.500000000000     0          
H224     H      0.090200000000     0.825700000000     0.500000000000     0          
C225     C      0.144600000000     0.801400000000     0.500000000000     0          
H226     H      0.136000000000     0.774300000000     0.500000000000     0          
O227     O      0.108890000000     0.941550000000     0.500000000000     0          
C228     C      0.117900000000     0.332300000000     0.000000000000     0          
H229     H      0.090200000000     0.325700000000     0.000000000000     0          
C230     C      0.144600000000     0.301400000000     0.000000000000     0          
H231     H      0.136000000000     0.274300000000     0.000000000000     0          
O232     O      0.108890000000     0.441550000000     0.000000000000     0          
C233     C      0.617900000000     0.167700000000     0.000000000000     0          
H234     H      0.590200000000     0.174300000000     0.000000000000     0          
C235     C      0.644600000000     0.198600000000     0.000000000000     0          
H236     H      0.636000000000     0.225700000000     0.000000000000     0          
O237     O      0.608890000000     0.058450000000     0.000000000000     0          
C238     C      0.617900000000     0.667700000000     0.500000000000     0          
H239     H      0.590200000000     0.674300000000     0.500000000000     0          
C240     C      0.644600000000     0.698600000000     0.500000000000     0          
H241     H      0.636000000000     0.725700000000     0.500000000000     0          
O242     O      0.608890000000     0.558450000000     0.500000000000     0          
C243     C      0.117900000000     0.167700000000     0.500000000000     0          
H244     H      0.090200000000     0.174300000000     0.500000000000     0          
C245     C      0.144600000000     0.198600000000     0.500000000000     0          
H246     H      0.136000000000     0.225700000000     0.500000000000     0          
O247     O      0.108890000000     0.058450000000     0.500000000000     0          
C248     C      0.117900000000     0.667700000000     0.000000000000     0          
H249     H      0.090200000000     0.674300000000     0.000000000000     0          
C250     C      0.144600000000     0.698600000000     0.000000000000     0          
H251     H      0.136000000000     0.725700000000     0.000000000000     0          
O252     O      0.108890000000     0.558450000000     0.000000000000     0          
C253     C      0.382100000000     0.832300000000     0.000000000000     0          
H254     H      0.409800000000     0.825700000000     0.000000000000     0          
C255     C      0.355400000000     0.801400000000     0.000000000000     0          
H256     H      0.364000000000     0.774300000000     0.000000000000     0          
O257     O      0.391110000000     0.941550000000     0.000000000000     0          
C258     C      0.382100000000     0.332300000000     0.500000000000     0          
H259     H      0.409800000000     0.325700000000     0.500000000000     0          
C260     C      0.355400000000     0.301400000000     0.500000000000     0          
H261     H      0.364000000000     0.274300000000     0.500000000000     0          
O262     O      0.391110000000     0.441550000000     0.500000000000     0          
C263     C      0.882100000000     0.832300000000     0.500000000000     0          
H264     H      0.909800000000     0.825700000000     0.500000000000     0          
C265     C      0.855400000000     0.801400000000     0.500000000000     0          
H266     H      0.864000000000     0.774300000000     0.500000000000     0          
O267     O      0.891110000000     0.941550000000     0.500000000000     0          
C268     C      0.882100000000     0.332300000000     0.000000000000     0          
H269     H      0.909800000000     0.325700000000     0.000000000000     0          
C270     C      0.855400000000     0.301400000000     0.000000000000     0          
H271     H      0.864000000000     0.274300000000     0.000000000000     0          
O272     O      0.891110000000     0.441550000000     0.000000000000     0          
C273     C      0.000000000000     0.382100000000     0.167700000000     0          
H274     H      0.000000000000     0.409800000000     0.174300000000     0          
C275     C      0.000000000000     0.355400000000     0.198600000000     0          
H276     H      0.000000000000     0.364000000000     0.225700000000     0          
O277     O      0.000000000000     0.391110000000     0.058450000000     0          
C278     C      0.000000000000     0.882100000000     0.667700000000     0          
H279     H      0.000000000000     0.909800000000     0.674300000000     0          
C280     C      0.000000000000     0.855400000000     0.698600000000     0          
H281     H      0.000000000000     0.864000000000     0.725700000000     0          
O282     O      0.000000000000     0.891110000000     0.558450000000     0          
C283     C      0.500000000000     0.382100000000     0.667700000000     0          
H284     H      0.500000000000     0.409800000000     0.674300000000     0          
C285     C      0.500000000000     0.355400000000     0.698600000000     0          
H286     H      0.500000000000     0.364000000000     0.725700000000     0          
O287     O      0.500000000000     0.391110000000     0.558450000000     0          
C288     C      0.500000000000     0.882100000000     0.167700000000     0          
H289     H      0.500000000000     0.909800000000     0.174300000000     0          
C290     C      0.500000000000     0.855400000000     0.198600000000     0          
H291     H      0.500000000000     0.864000000000     0.225700000000     0          
O292     O      0.500000000000     0.891110000000     0.058450000000     0          
C293     C      0.000000000000     0.617900000000     0.832300000000     0          
H294     H      0.000000000000     0.590200000000     0.825700000000     0          
C295     C      0.000000000000     0.644600000000     0.801400000000     0          
H296     H      0.000000000000     0.636000000000     0.774300000000     0          
O297     O      0.000000000000     0.608890000000     0.941550000000     0          
C298     C      0.000000000000     0.117900000000     0.332300000000     0          
H299     H      0.000000000000     0.090200000000     0.325700000000     0          
C300     C      0.000000000000     0.144600000000     0.301400000000     0          
H301     H      0.000000000000     0.136000000000     0.274300000000     0          
O302     O      0.000000000000     0.108890000000     0.441550000000     0          
C303     C      0.500000000000     0.617900000000     0.332300000000     0          
H304     H      0.500000000000     0.590200000000     0.325700000000     0          
C305     C      0.500000000000     0.644600000000     0.301400000000     0          
H306     H      0.500000000000     0.636000000000     0.274300000000     0          
O307     O      0.500000000000     0.608890000000     0.441550000000     0          
C308     C      0.500000000000     0.117900000000     0.832300000000     0          
H309     H      0.500000000000     0.090200000000     0.825700000000     0          
C310     C      0.500000000000     0.144600000000     0.801400000000     0          
H311     H      0.500000000000     0.136000000000     0.774300000000     0          
O312     O      0.500000000000     0.108890000000     0.941550000000     0          
C313     C      0.000000000000     0.617900000000     0.167700000000     0          
H314     H      0.000000000000     0.590200000000     0.174300000000     0          
C315     C      0.000000000000     0.644600000000     0.198600000000     0          
H316     H      0.000000000000     0.636000000000     0.225700000000     0          
O317     O      0.000000000000     0.608890000000     0.058450000000     0          
C318     C      0.000000000000     0.117900000000     0.667700000000     0          
H319     H      0.000000000000     0.090200000000     0.674300000000     0          
C320     C      0.000000000000     0.144600000000     0.698600000000     0          
H321     H      0.000000000000     0.136000000000     0.725700000000     0          
O322     O      0.000000000000     0.108890000000     0.558450000000     0          
C323     C      0.500000000000     0.617900000000     0.667700000000     0          
H324     H      0.500000000000     0.590200000000     0.674300000000     0          
C325     C      0.500000000000     0.644600000000     0.698600000000     0          
H326     H      0.500000000000     0.636000000000     0.725700000000     0          
O327     O      0.500000000000     0.608890000000     0.558450000000     0          
C328     C      0.500000000000     0.117900000000     0.167700000000     0          
H329     H      0.500000000000     0.090200000000     0.174300000000     0          
C330     C      0.500000000000     0.144600000000     0.198600000000     0          
H331     H      0.500000000000     0.136000000000     0.225700000000     0          
O332     O      0.500000000000     0.108890000000     0.058450000000     0          
C333     C      0.000000000000     0.382100000000     0.832300000000     0          
H334     H      0.000000000000     0.409800000000     0.825700000000     0          
C335     C      0.000000000000     0.355400000000     0.801400000000     0          
H336     H      0.000000000000     0.364000000000     0.774300000000     0          
O337     O      0.000000000000     0.391110000000     0.941550000000     0          
C338     C      0.000000000000     0.882100000000     0.332300000000     0          
H339     H      0.000000000000     0.909800000000     0.325700000000     0          
C340     C      0.000000000000     0.855400000000     0.301400000000     0          
H341     H      0.000000000000     0.864000000000     0.274300000000     0          
O342     O      0.000000000000     0.891110000000     0.441550000000     0          
C343     C      0.500000000000     0.382100000000     0.332300000000     0          
H344     H      0.500000000000     0.409800000000     0.325700000000     0          
C345     C      0.500000000000     0.355400000000     0.301400000000     0          
H346     H      0.500000000000     0.364000000000     0.274300000000     0          
O347     O      0.500000000000     0.391110000000     0.441550000000     0          
C348     C      0.500000000000     0.882100000000     0.832300000000     0          
H349     H      0.500000000000     0.909800000000     0.825700000000     0          
C350     C      0.500000000000     0.855400000000     0.801400000000     0          
H351     H      0.500000000000     0.864000000000     0.774300000000     0          
O352     O      0.500000000000     0.891110000000     0.941550000000     0          
C353     C      0.167700000000     0.000000000000     0.382100000000     0          
H354     H      0.174300000000     0.000000000000     0.409800000000     0          
C355     C      0.198600000000     0.000000000000     0.355400000000     0          
H356     H      0.225700000000     0.000000000000     0.364000000000     0          
O357     O      0.058450000000     0.000000000000     0.391110000000     0          
C358     C      0.167700000000     0.500000000000     0.882100000000     0          
H359     H      0.174300000000     0.500000000000     0.909800000000     0          
C360     C      0.198600000000     0.500000000000     0.855400000000     0          
H361     H      0.225700000000     0.500000000000     0.864000000000     0          
O362     O      0.058450000000     0.500000000000     0.891110000000     0          
C363     C      0.667700000000     0.000000000000     0.882100000000     0          
H364     H      0.674300000000     0.000000000000     0.909800000000     0          
C365     C      0.698600000000     0.000000000000     0.855400000000     0          
H366     H      0.725700000000     0.000000000000     0.864000000000     0          
O367     O      0.558450000000     0.000000000000     0.891110000000     0          
C368     C      0.667700000000     0.500000000000     0.382100000000     0          
H369     H      0.674300000000     0.500000000000     0.409800000000     0          
C370     C      0.698600000000     0.500000000000     0.355400000000     0          
H371     H      0.725700000000     0.500000000000     0.364000000000     0          
O372     O      0.558450000000     0.500000000000     0.391110000000     0          
C373     C      0.832300000000     0.000000000000     0.617900000000     0          
H374     H      0.825700000000     0.000000000000     0.590200000000     0          
C375     C      0.801400000000     0.000000000000     0.644600000000     0          
H376     H      0.774300000000     0.000000000000     0.636000000000     0          
O377     O      0.941550000000     0.000000000000     0.608890000000     0          
C378     C      0.832300000000     0.500000000000     0.117900000000     0          
H379     H      0.825700000000     0.500000000000     0.090200000000     0          
C380     C      0.801400000000     0.500000000000     0.144600000000     0          
H381     H      0.774300000000     0.500000000000     0.136000000000     0          
O382     O      0.941550000000     0.500000000000     0.108890000000     0          
C383     C      0.332300000000     0.000000000000     0.117900000000     0          
H384     H      0.325700000000     0.000000000000     0.090200000000     0          
C385     C      0.301400000000     0.000000000000     0.144600000000     0          
H386     H      0.274300000000     0.000000000000     0.136000000000     0          
O387     O      0.441550000000     0.000000000000     0.108890000000     0          
C388     C      0.332300000000     0.500000000000     0.617900000000     0          
H389     H      0.325700000000     0.500000000000     0.590200000000     0          
C390     C      0.301400000000     0.500000000000     0.644600000000     0          
H391     H      0.274300000000     0.500000000000     0.636000000000     0          
O392     O      0.441550000000     0.500000000000     0.608890000000     0          
C393     C      0.167700000000     0.000000000000     0.617900000000     0          
H394     H      0.174300000000     0.000000000000     0.590200000000     0          
C395     C      0.198600000000     0.000000000000     0.644600000000     0          
H396     H      0.225700000000     0.000000000000     0.636000000000     0          
O397     O      0.058450000000     0.000000000000     0.608890000000     0          
C398     C      0.167700000000     0.500000000000     0.117900000000     0          
H399     H      0.174300000000     0.500000000000     0.090200000000     0          
C400     C      0.198600000000     0.500000000000     0.144600000000     0          
H401     H      0.225700000000     0.500000000000     0.136000000000     0          
O402     O      0.058450000000     0.500000000000     0.108890000000     0          
C403     C      0.667700000000     0.000000000000     0.117900000000     0          
H404     H      0.674300000000     0.000000000000     0.090200000000     0          
C405     C      0.698600000000     0.000000000000     0.144600000000     0          
H406     H      0.725700000000     0.000000000000     0.136000000000     0          
O407     O      0.558450000000     0.000000000000     0.108890000000     0          
C408     C      0.667700000000     0.500000000000     0.617900000000     0          
H409     H      0.674300000000     0.500000000000     0.590200000000     0          
C410     C      0.698600000000     0.500000000000     0.644600000000     0          
H411     H      0.725700000000     0.500000000000     0.636000000000     0          
O412     O      0.558450000000     0.500000000000     0.608890000000     0          
C413     C      0.832300000000     0.000000000000     0.382100000000     0          
H414     H      0.825700000000     0.000000000000     0.409800000000     0          
C415     C      0.801400000000     0.000000000000     0.355400000000     0          
H416     H      0.774300000000     0.000000000000     0.364000000000     0          
O417     O      0.941550000000     0.000000000000     0.391110000000     0          
C418     C      0.832300000000     0.500000000000     0.882100000000     0          
H419     H      0.825700000000     0.500000000000     0.909800000000     0          
C420     C      0.801400000000     0.500000000000     0.855400000000     0          
H421     H      0.774300000000     0.500000000000     0.864000000000     0          
O422     O      0.941550000000     0.500000000000     0.891110000000     0          
C423     C      0.332300000000     0.000000000000     0.882100000000     0          
H424     H      0.325700000000     0.000000000000     0.909800000000     0          
C425     C      0.301400000000     0.000000000000     0.855400000000     0          
H426     H      0.274300000000     0.000000000000     0.864000000000     0          
O427     O      0.441550000000     0.000000000000     0.891110000000     0          
C428     C      0.332300000000     0.500000000000     0.382100000000     0          
H429     H      0.325700000000     0.500000000000     0.409800000000     0          
C430     C      0.301400000000     0.500000000000     0.355400000000     0          
H431     H      0.274300000000     0.500000000000     0.364000000000     0          
O432     O      0.441550000000     0.500000000000     0.391110000000     0          
C433     C      0.167700000000     0.382100000000     0.000000000000     0          
H434     H      0.174300000000     0.409800000000     0.000000000000     0          
C435     C      0.198600000000     0.355400000000     0.000000000000     0          
H436     H      0.225700000000     0.364000000000     0.000000000000     0          
O437     O      0.058450000000     0.391110000000     0.000000000000     0          
C438     C      0.167700000000     0.882100000000     0.500000000000     0          
H439     H      0.174300000000     0.909800000000     0.500000000000     0          
C440     C      0.198600000000     0.855400000000     0.500000000000     0          
H441     H      0.225700000000     0.864000000000     0.500000000000     0          
O442     O      0.058450000000     0.891110000000     0.500000000000     0          
C443     C      0.667700000000     0.382100000000     0.500000000000     0          
H444     H      0.674300000000     0.409800000000     0.500000000000     0          
C445     C      0.698600000000     0.355400000000     0.500000000000     0          
H446     H      0.725700000000     0.364000000000     0.500000000000     0          
O447     O      0.558450000000     0.391110000000     0.500000000000     0          
C448     C      0.667700000000     0.882100000000     0.000000000000     0          
H449     H      0.674300000000     0.909800000000     0.000000000000     0          
C450     C      0.698600000000     0.855400000000     0.000000000000     0          
H451     H      0.725700000000     0.864000000000     0.000000000000     0          
O452     O      0.558450000000     0.891110000000     0.000000000000     0          
C453     C      0.832300000000     0.617900000000     0.000000000000     0          
H454     H      0.825700000000     0.590200000000     0.000000000000     0          
C455     C      0.801400000000     0.644600000000     0.000000000000     0          
H456     H      0.774300000000     0.636000000000     0.000000000000     0          
O457     O      0.941550000000     0.608890000000     0.000000000000     0          
C458     C      0.832300000000     0.117900000000     0.500000000000     0          
H459     H      0.825700000000     0.090200000000     0.500000000000     0          
C460     C      0.801400000000     0.144600000000     0.500000000000     0          
H461     H      0.774300000000     0.136000000000     0.500000000000     0          
O462     O      0.941550000000     0.108890000000     0.500000000000     0          
C463     C      0.332300000000     0.617900000000     0.500000000000     0          
H464     H      0.325700000000     0.590200000000     0.500000000000     0          
C465     C      0.301400000000     0.644600000000     0.500000000000     0          
H466     H      0.274300000000     0.636000000000     0.500000000000     0          
O467     O      0.441550000000     0.608890000000     0.500000000000     0          
C468     C      0.332300000000     0.117900000000     0.000000000000     0          
H469     H      0.325700000000     0.090200000000     0.000000000000     0          
C470     C      0.301400000000     0.144600000000     0.000000000000     0          
H471     H      0.274300000000     0.136000000000     0.000000000000     0          
O472     O      0.441550000000     0.108890000000     0.000000000000     0          
C473     C      0.167700000000     0.617900000000     0.000000000000     0          
H474     H      0.174300000000     0.590200000000     0.000000000000     0          
C475     C      0.198600000000     0.644600000000     0.000000000000     0          
H476     H      0.225700000000     0.636000000000     0.000000000000     0          
O477     O      0.058450000000     0.608890000000     0.000000000000     0          
C478     C      0.167700000000     0.117900000000     0.500000000000     0          
H479     H      0.174300000000     0.090200000000     0.500000000000     0          
C480     C      0.198600000000     0.144600000000     0.500000000000     0          
H481     H      0.225700000000     0.136000000000     0.500000000000     0          
O482     O      0.058450000000     0.108890000000     0.500000000000     0          
C483     C      0.667700000000     0.617900000000     0.500000000000     0          
H484     H      0.674300000000     0.590200000000     0.500000000000     0          
C485     C      0.698600000000     0.644600000000     0.500000000000     0          
H486     H      0.725700000000     0.636000000000     0.500000000000     0          
O487     O      0.558450000000     0.608890000000     0.500000000000     0          
C488     C      0.667700000000     0.117900000000     0.000000000000     0          
H489     H      0.674300000000     0.090200000000     0.000000000000     0          
C490     C      0.698600000000     0.144600000000     0.000000000000     0          
H491     H      0.725700000000     0.136000000000     0.000000000000     0          
O492     O      0.558450000000     0.108890000000     0.000000000000     0          
C493     C      0.832300000000     0.382100000000     0.000000000000     0          
H494     H      0.825700000000     0.409800000000     0.000000000000     0          
C495     C      0.801400000000     0.355400000000     0.000000000000     0          
H496     H      0.774300000000     0.364000000000     0.000000000000     0          
O497     O      0.941550000000     0.391110000000     0.000000000000     0          
C498     C      0.832300000000     0.882100000000     0.500000000000     0          
H499     H      0.825700000000     0.909800000000     0.500000000000     0          
C500     C      0.801400000000     0.855400000000     0.500000000000     0          
H501     H      0.774300000000     0.864000000000     0.500000000000     0          
O502     O      0.941550000000     0.891110000000     0.500000000000     0          
C503     C      0.332300000000     0.382100000000     0.500000000000     0          
H504     H      0.325700000000     0.409800000000     0.500000000000     0          
C505     C      0.301400000000     0.355400000000     0.500000000000     0          
H506     H      0.274300000000     0.364000000000     0.500000000000     0          
O507     O      0.441550000000     0.391110000000     0.500000000000     0          
C508     C      0.332300000000     0.882100000000     0.000000000000     0          
H509     H      0.325700000000     0.909800000000     0.000000000000     0          
C510     C      0.301400000000     0.855400000000     0.000000000000     0          
H511     H      0.274300000000     0.864000000000     0.000000000000     0          
O512     O      0.441550000000     0.891110000000     0.000000000000     0          
C513     C      0.382100000000     0.000000000000     0.832300000000     0          
H514     H      0.409800000000     0.000000000000     0.825700000000     0          
C515     C      0.355400000000     0.000000000000     0.801400000000     0          
H516     H      0.364000000000     0.000000000000     0.774300000000     0          
O517     O      0.391110000000     0.000000000000     0.941550000000     0          
C518     C      0.382100000000     0.500000000000     0.332300000000     0          
H519     H      0.409800000000     0.500000000000     0.325700000000     0          
C520     C      0.355400000000     0.500000000000     0.301400000000     0          
H521     H      0.364000000000     0.500000000000     0.274300000000     0          
O522     O      0.391110000000     0.500000000000     0.441550000000     0          
C523     C      0.882100000000     0.000000000000     0.332300000000     0          
H524     H      0.909800000000     0.000000000000     0.325700000000     0          
C525     C      0.855400000000     0.000000000000     0.301400000000     0          
H526     H      0.864000000000     0.000000000000     0.274300000000     0          
O527     O      0.891110000000     0.000000000000     0.441550000000     0          
C528     C      0.882100000000     0.500000000000     0.832300000000     0          
H529     H      0.909800000000     0.500000000000     0.825700000000     0          
C530     C      0.855400000000     0.500000000000     0.801400000000     0          
H531     H      0.864000000000     0.500000000000     0.774300000000     0          
O532     O      0.891110000000     0.500000000000     0.941550000000     0          
C533     C      0.617900000000     0.000000000000     0.167700000000     0          
H534     H      0.590200000000     0.000000000000     0.174300000000     0          
C535     C      0.644600000000     0.000000000000     0.198600000000     0          
H536     H      0.636000000000     0.000000000000     0.225700000000     0          
O537     O      0.608890000000     0.000000000000     0.058450000000     0          
C538     C      0.617900000000     0.500000000000     0.667700000000     0          
H539     H      0.590200000000     0.500000000000     0.674300000000     0          
C540     C      0.644600000000     0.500000000000     0.698600000000     0          
H541     H      0.636000000000     0.500000000000     0.725700000000     0          
O542     O      0.608890000000     0.500000000000     0.558450000000     0          
C543     C      0.117900000000     0.000000000000     0.667700000000     0          
H544     H      0.090200000000     0.000000000000     0.674300000000     0          
C545     C      0.144600000000     0.000000000000     0.698600000000     0          
H546     H      0.136000000000     0.000000000000     0.725700000000     0          
O547     O      0.108890000000     0.000000000000     0.558450000000     0          
C548     C      0.117900000000     0.500000000000     0.167700000000     0          
H549     H      0.090200000000     0.500000000000     0.174300000000     0          
C550     C      0.144600000000     0.500000000000     0.198600000000     0          
H551     H      0.136000000000     0.500000000000     0.225700000000     0          
O552     O      0.108890000000     0.500000000000     0.058450000000     0          
C553     C      0.617900000000     0.000000000000     0.832300000000     0          
H554     H      0.590200000000     0.000000000000     0.825700000000     0          
C555     C      0.644600000000     0.000000000000     0.801400000000     0          
H556     H      0.636000000000     0.000000000000     0.774300000000     0          
O557     O      0.608890000000     0.000000000000     0.941550000000     0          
C558     C      0.617900000000     0.500000000000     0.332300000000     0          
H559     H      0.590200000000     0.500000000000     0.325700000000     0          
C560     C      0.644600000000     0.500000000000     0.301400000000     0          
H561     H      0.636000000000     0.500000000000     0.274300000000     0          
O562     O      0.608890000000     0.500000000000     0.441550000000     0          
C563     C      0.117900000000     0.000000000000     0.332300000000     0          
H564     H      0.090200000000     0.000000000000     0.325700000000     0          
C565     C      0.144600000000     0.000000000000     0.301400000000     0          
H566     H      0.136000000000     0.000000000000     0.274300000000     0          
O567     O      0.108890000000     0.000000000000     0.441550000000     0          
C568     C      0.117900000000     0.500000000000     0.832300000000     0          
H569     H      0.090200000000     0.500000000000     0.825700000000     0          
C570     C      0.144600000000     0.500000000000     0.801400000000     0          
H571     H      0.136000000000     0.500000000000     0.774300000000     0          
O572     O      0.108890000000     0.500000000000     0.941550000000     0          
C573     C      0.382100000000     0.000000000000     0.167700000000     0          
H574     H      0.409800000000     0.000000000000     0.174300000000     0          
C575     C      0.355400000000     0.000000000000     0.198600000000     0          
H576     H      0.364000000000     0.000000000000     0.225700000000     0          
O577     O      0.391110000000     0.000000000000     0.058450000000     0          
C578     C      0.382100000000     0.500000000000     0.667700000000     0          
H579     H      0.409800000000     0.500000000000     0.674300000000     0          
C580     C      0.355400000000     0.500000000000     0.698600000000     0          
H581     H      0.364000000000     0.500000000000     0.725700000000     0          
O582     O      0.391110000000     0.500000000000     0.558450000000     0          
C583     C      0.882100000000     0.000000000000     0.667700000000     0          
H584     H      0.909800000000     0.000000000000     0.674300000000     0          
C585     C      0.855400000000     0.000000000000     0.698600000000     0          
H586     H      0.864000000000     0.000000000000     0.725700000000     0          
O587     O      0.891110000000     0.000000000000     0.558450000000     0          
C588     C      0.882100000000     0.500000000000     0.167700000000     0          
H589     H      0.909800000000     0.500000000000     0.174300000000     0          
C590     C      0.855400000000     0.500000000000     0.198600000000     0          
H591     H      0.864000000000     0.500000000000     0.225700000000     0          
O592     O      0.891110000000     0.500000000000     0.058450000000     0          
C593     C      0.000000000000     0.167700000000     0.617900000000     0          
H594     H      0.000000000000     0.174300000000     0.590200000000     0          
C595     C      0.000000000000     0.198600000000     0.644600000000     0          
H596     H      0.000000000000     0.225700000000     0.636000000000     0          
O597     O      0.000000000000     0.058450000000     0.608890000000     0          
C598     C      0.000000000000     0.667700000000     0.117900000000     0          
H599     H      0.000000000000     0.674300000000     0.090200000000     0          
C600     C      0.000000000000     0.698600000000     0.144600000000     0          
H601     H      0.000000000000     0.725700000000     0.136000000000     0          
O602     O      0.000000000000     0.558450000000     0.108890000000     0          
C603     C      0.500000000000     0.167700000000     0.117900000000     0          
H604     H      0.500000000000     0.174300000000     0.090200000000     0          
C605     C      0.500000000000     0.198600000000     0.144600000000     0          
H606     H      0.500000000000     0.225700000000     0.136000000000     0          
O607     O      0.500000000000     0.058450000000     0.108890000000     0          
C608     C      0.500000000000     0.667700000000     0.617900000000     0          
H609     H      0.500000000000     0.674300000000     0.590200000000     0          
C610     C      0.500000000000     0.698600000000     0.644600000000     0          
H611     H      0.500000000000     0.725700000000     0.636000000000     0          
O612     O      0.500000000000     0.558450000000     0.608890000000     0          
C613     C      0.000000000000     0.832300000000     0.382100000000     0          
H614     H      0.000000000000     0.825700000000     0.409800000000     0          
C615     C      0.000000000000     0.801400000000     0.355400000000     0          
H616     H      0.000000000000     0.774300000000     0.364000000000     0          
O617     O      0.000000000000     0.941550000000     0.391110000000     0          
C618     C      0.000000000000     0.332300000000     0.882100000000     0          
H619     H      0.000000000000     0.325700000000     0.909800000000     0          
C620     C      0.000000000000     0.301400000000     0.855400000000     0          
H621     H      0.000000000000     0.274300000000     0.864000000000     0          
O622     O      0.000000000000     0.441550000000     0.891110000000     0          
C623     C      0.500000000000     0.832300000000     0.882100000000     0          
H624     H      0.500000000000     0.825700000000     0.909800000000     0          
C625     C      0.500000000000     0.801400000000     0.855400000000     0          
H626     H      0.500000000000     0.774300000000     0.864000000000     0          
O627     O      0.500000000000     0.941550000000     0.891110000000     0          
C628     C      0.500000000000     0.332300000000     0.382100000000     0          
H629     H      0.500000000000     0.325700000000     0.409800000000     0          
C630     C      0.500000000000     0.301400000000     0.355400000000     0          
H631     H      0.500000000000     0.274300000000     0.364000000000     0          
O632     O      0.500000000000     0.441550000000     0.391110000000     0          
C633     C      0.000000000000     0.167700000000     0.382100000000     0          
H634     H      0.000000000000     0.174300000000     0.409800000000     0          
C635     C      0.000000000000     0.198600000000     0.355400000000     0          
H636     H      0.000000000000     0.225700000000     0.364000000000     0          
O637     O      0.000000000000     0.058450000000     0.391110000000     0          
C638     C      0.000000000000     0.667700000000     0.882100000000     0          
H639     H      0.000000000000     0.674300000000     0.909800000000     0          
C640     C      0.000000000000     0.698600000000     0.855400000000     0          
H641     H      0.000000000000     0.725700000000     0.864000000000     0          
O642     O      0.000000000000     0.558450000000     0.891110000000     0          
C643     C      0.500000000000     0.167700000000     0.882100000000     0          
H644     H      0.500000000000     0.174300000000     0.909800000000     0          
C645     C      0.500000000000     0.198600000000     0.855400000000     0          
H646     H      0.500000000000     0.225700000000     0.864000000000     0          
O647     O      0.500000000000     0.058450000000     0.891110000000     0          
C648     C      0.500000000000     0.667700000000     0.382100000000     0          
H649     H      0.500000000000     0.674300000000     0.409800000000     0          
C650     C      0.500000000000     0.698600000000     0.355400000000     0          
H651     H      0.500000000000     0.725700000000     0.364000000000     0          
O652     O      0.500000000000     0.558450000000     0.391110000000     0          
C653     C      0.000000000000     0.832300000000     0.617900000000     0          
H654     H      0.000000000000     0.825700000000     0.590200000000     0          
C655     C      0.000000000000     0.801400000000     0.644600000000     0          
H656     H      0.000000000000     0.774300000000     0.636000000000     0          
O657     O      0.000000000000     0.941550000000     0.608890000000     0          
C658     C      0.000000000000     0.332300000000     0.117900000000     0          
H659     H      0.000000000000     0.325700000000     0.090200000000     0          
C660     C      0.000000000000     0.301400000000     0.144600000000     0          
H661     H      0.000000000000     0.274300000000     0.136000000000     0          
O662     O      0.000000000000     0.441550000000     0.108890000000     0          
C663     C      0.500000000000     0.832300000000     0.117900000000     0          
H664     H      0.500000000000     0.825700000000     0.090200000000     0          
C665     C      0.500000000000     0.801400000000     0.144600000000     0          
H666     H      0.500000000000     0.774300000000     0.136000000000     0          
O667     O      0.500000000000     0.941550000000     0.108890000000     0          
C668     C      0.500000000000     0.332300000000     0.617900000000     0          
H669     H      0.500000000000     0.325700000000     0.590200000000     0          
C670     C      0.500000000000     0.301400000000     0.644600000000     0          
H671     H      0.500000000000     0.274300000000     0.636000000000     0          
O672     O      0.500000000000     0.441550000000     0.608890000000     0          
C673     C      0.265600000000     0.234400000000     0.040400000000     0          
O674     O      0.276000000000     0.224000000000     0.064800000000     0          
C675     C      0.265600000000     0.734400000000     0.540400000000     0          
H676     H      0.276000000000     0.724000000000     0.564800000000     0          
C677     C      0.734400000000     0.765600000000     0.040400000000     0          
O678     O      0.724000000000     0.776000000000     0.064800000000     0          
C679     C      0.734400000000     0.265600000000     0.540400000000     0          
H680     H      0.724000000000     0.276000000000     0.564800000000     0          
C681     C      0.234400000000     0.265600000000     0.040400000000     0          
H682     H      0.224000000000     0.276000000000     0.064800000000     0          
C683     C      0.734400000000     0.234400000000     0.959600000000     0          
O684     O      0.724000000000     0.224000000000     0.935200000000     0          
C685     C      0.734400000000     0.734400000000     0.459600000000     0          
H686     H      0.724000000000     0.724000000000     0.435200000000     0          
C687     C      0.234400000000     0.234400000000     0.459600000000     0          
O688     O      0.219820000000     0.219820000000     0.422060000000     0          
C689     C      0.265600000000     0.765600000000     0.959600000000     0          
O690     O      0.276000000000     0.776000000000     0.935200000000     0          
C691     C      0.265600000000     0.265600000000     0.459600000000     0          
H692     H      0.276000000000     0.276000000000     0.435200000000     0          
C693     C      0.040400000000     0.265600000000     0.234400000000     0          
O694     O      0.064800000000     0.276000000000     0.224000000000     0          
C695     C      0.540400000000     0.265600000000     0.734400000000     0          
O696     O      0.564800000000     0.276000000000     0.724000000000     0          
C697     C      0.040400000000     0.734400000000     0.765600000000     0          
O698     O      0.064800000000     0.724000000000     0.776000000000     0          
C699     C      0.040400000000     0.234400000000     0.265600000000     0          
H700     H      0.064800000000     0.224000000000     0.276000000000     0          
C701     C      0.540400000000     0.734400000000     0.265600000000     0          
O702     O      0.564800000000     0.724000000000     0.276000000000     0          
C703     C      0.959600000000     0.734400000000     0.234400000000     0          
O704     O      0.935200000000     0.724000000000     0.224000000000     0          
C705     C      0.459600000000     0.734400000000     0.734400000000     0          
O706     O      0.435200000000     0.724000000000     0.724000000000     0          
C707     C      0.459600000000     0.234400000000     0.234400000000     0          
H708     H      0.435200000000     0.224000000000     0.224000000000     0          
C709     C      0.959600000000     0.265600000000     0.765600000000     0          
O710     O      0.935200000000     0.276000000000     0.776000000000     0          
C711     C      0.459600000000     0.265600000000     0.265600000000     0          
O712     O      0.435200000000     0.276000000000     0.276000000000     0          
C713     C      0.234400000000     0.040400000000     0.265600000000     0          
H714     H      0.224000000000     0.064800000000     0.276000000000     0          
C715     C      0.234400000000     0.540400000000     0.765600000000     0          
O716     O      0.218580000000     0.576830000000     0.781430000000     0          
C717     C      0.765600000000     0.040400000000     0.734400000000     0          
H718     H      0.776000000000     0.064800000000     0.724000000000     0          
C719     C      0.765600000000     0.540400000000     0.234400000000     0          
O720     O      0.781430000000     0.576830000000     0.218570000000     0          
C721     C      0.265600000000     0.040400000000     0.234400000000     0          
O722     O      0.281420000000     0.076830000000     0.218560000000     0          
C723     C      0.234400000000     0.959600000000     0.734400000000     0          
H724     H      0.224000000000     0.935200000000     0.724000000000     0          
C725     C      0.234400000000     0.459600000000     0.234400000000     0          
O726     O      0.219810000000     0.422060000000     0.219840000000     0          
C727     C      0.765600000000     0.959600000000     0.265600000000     0          
H728     H      0.776000000000     0.935200000000     0.276000000000     0          
C729     C      0.765600000000     0.459600000000     0.765600000000     0          
O730     O      0.780180000000     0.422060000000     0.780180000000     0          
C731     C      0.265600000000     0.459600000000     0.265600000000     0          
H732     H      0.276000000000     0.435200000000     0.276000000000     0          
C733     C      0.234400000000     0.265600000000     0.959600000000     0          
O734     O      0.219820000000     0.280180000000     0.922060000000     0          
C735     C      0.234400000000     0.765600000000     0.459600000000     0          
H736     H      0.224000000000     0.776000000000     0.435200000000     0          
C737     C      0.765600000000     0.734400000000     0.959600000000     0          
O738     O      0.780180000000     0.719820000000     0.922060000000     0          
C739     C      0.765600000000     0.234400000000     0.459600000000     0          
H740     H      0.776000000000     0.224000000000     0.435200000000     0          
C741     C      0.265600000000     0.234400000000     0.959600000000     0          
H742     H      0.276000000000     0.224000000000     0.935200000000     0          
C743     C      0.234400000000     0.734400000000     0.040400000000     0          
O744     O      0.218570000000     0.718570000000     0.076830000000     0          
C745     C      0.234400000000     0.234400000000     0.540400000000     0          
H746     H      0.224000000000     0.224000000000     0.564800000000     0          
C747     C      0.765600000000     0.265600000000     0.040400000000     0          
O748     O      0.781430000000     0.281430000000     0.076830000000     0          
C749     C      0.765600000000     0.765600000000     0.540400000000     0          
H750     H      0.776000000000     0.776000000000     0.564800000000     0          
C751     C      0.265600000000     0.265600000000     0.540400000000     0          
O752     O      0.276000000000     0.276000000000     0.564800000000     0          
C753     C      0.265600000000     0.040400000000     0.765600000000     0          
H754     H      0.276000000000     0.064800000000     0.776000000000     0          
C755     C      0.265600000000     0.540400000000     0.265600000000     0          
O756     O      0.276000000000     0.564800000000     0.276000000000     0          
C757     C      0.734400000000     0.040400000000     0.234400000000     0          
H758     H      0.724000000000     0.064800000000     0.224000000000     0          
C759     C      0.734400000000     0.540400000000     0.734400000000     0          
O760     O      0.724000000000     0.564800000000     0.724000000000     0          
C761     C      0.234400000000     0.540400000000     0.234400000000     0          
H762     H      0.224000000000     0.564800000000     0.224000000000     0          
C763     C      0.734400000000     0.959600000000     0.765600000000     0          
H764     H      0.724000000000     0.935200000000     0.776000000000     0          
C765     C      0.734400000000     0.459600000000     0.265600000000     0          
O766     O      0.724000000000     0.435200000000     0.276000000000     0          
C767     C      0.234400000000     0.959600000000     0.265600000000     0          
O768     O      0.219820000000     0.922060000000     0.280170000000     0          
C769     C      0.265600000000     0.959600000000     0.234400000000     0          
H770     H      0.276000000000     0.935200000000     0.224000000000     0          
C771     C      0.265600000000     0.459600000000     0.734400000000     0          
O772     O      0.276000000000     0.435200000000     0.724000000000     0          
C773     C      0.040400000000     0.234400000000     0.734400000000     0          
O774     O      0.076830000000     0.218570000000     0.718570000000     0          
C775     C      0.540400000000     0.234400000000     0.234400000000     0          
O776     O      0.576840000000     0.218570000000     0.218570000000     0          
C777     C      0.040400000000     0.765600000000     0.265600000000     0          
O778     O      0.077930000000     0.780180000000     0.280170000000     0          
C779     C      0.540400000000     0.765600000000     0.765600000000     0          
O780     O      0.577940000000     0.780170000000     0.780180000000     0          
C781     C      0.540400000000     0.265600000000     0.265600000000     0          
H782     H      0.564800000000     0.276000000000     0.276000000000     0          
C783     C      0.959600000000     0.234400000000     0.265600000000     0          
O784     O      0.922060000000     0.219810000000     0.280170000000     0          
C785     C      0.459600000000     0.234400000000     0.765600000000     0          
O786     O      0.422060000000     0.219810000000     0.780170000000     0          
C787     C      0.959600000000     0.765600000000     0.734400000000     0          
O788     O      0.922060000000     0.780170000000     0.719810000000     0          
C789     C      0.959600000000     0.265600000000     0.234400000000     0          
H790     H      0.935200000000     0.276000000000     0.224000000000     0          
C791     C      0.459600000000     0.765600000000     0.234400000000     0          
O792     O      0.422060000000     0.780170000000     0.219810000000     0          
C793     C      0.734400000000     0.765600000000     0.959600000000     0          
H794     H      0.724000000000     0.776000000000     0.935200000000     0          
C795     C      0.734400000000     0.265600000000     0.459600000000     0          
O796     O      0.724000000000     0.276000000000     0.435200000000     0          
C797     C      0.265600000000     0.734400000000     0.459600000000     0          
O798     O      0.276000000000     0.724000000000     0.435200000000     0          
C799     C      0.265600000000     0.765600000000     0.040400000000     0          
H800     H      0.276000000000     0.776000000000     0.064800000000     0          
C801     C      0.734400000000     0.234400000000     0.040400000000     0          
H802     H      0.724000000000     0.224000000000     0.064800000000     0          
C803     C      0.734400000000     0.734400000000     0.540400000000     0          
O804     O      0.724000000000     0.724000000000     0.564800000000     0          
C805     C      0.959600000000     0.734400000000     0.765600000000     0          
H806     H      0.935200000000     0.724000000000     0.776000000000     0          
C807     C      0.459600000000     0.734400000000     0.265600000000     0          
H808     H      0.435200000000     0.724000000000     0.276000000000     0          
C809     C      0.459600000000     0.265600000000     0.734400000000     0          
H810     H      0.435200000000     0.276000000000     0.724000000000     0          
C811     C      0.040400000000     0.265600000000     0.765600000000     0          
H812     H      0.064800000000     0.276000000000     0.776000000000     0          
C813     C      0.040400000000     0.734400000000     0.234400000000     0          
H814     H      0.064800000000     0.724000000000     0.224000000000     0          
C815     C      0.540400000000     0.734400000000     0.734400000000     0          
H816     H      0.564800000000     0.724000000000     0.724000000000     0          
C817     C      0.765600000000     0.959600000000     0.734400000000     0          
O818     O      0.780180000000     0.922060000000     0.719820000000     0          
C819     C      0.765600000000     0.459600000000     0.234400000000     0          
H820     H      0.776000000000     0.435200000000     0.224000000000     0          
C821     C      0.234400000000     0.459600000000     0.765600000000     0          
H822     H      0.224000000000     0.435200000000     0.776000000000     0          
C823     C      0.765600000000     0.040400000000     0.265600000000     0          
O824     O      0.781430000000     0.076830000000     0.281430000000     0          
C825     C      0.765600000000     0.540400000000     0.765600000000     0          
H826     H      0.776000000000     0.564800000000     0.776000000000     0          
C827     C      0.234400000000     0.040400000000     0.734400000000     0          
O828     O      0.218570000000     0.076830000000     0.718570000000     0          
C829     C      0.765600000000     0.734400000000     0.040400000000     0          
H830     H      0.776000000000     0.724000000000     0.064800000000     0          
C831     C      0.765600000000     0.234400000000     0.540400000000     0          
O832     O      0.781430000000     0.218570000000     0.576830000000     0          
C833     C      0.234400000000     0.765600000000     0.540400000000     0          
O834     O      0.218570000000     0.781430000000     0.576830000000     0          
C835     C      0.765600000000     0.265600000000     0.959600000000     0          
H836     H      0.776000000000     0.276000000000     0.935200000000     0          
C837     C      0.765600000000     0.765600000000     0.459600000000     0          
O838     O      0.780170000000     0.780180000000     0.422060000000     0          
C839     C      0.234400000000     0.734400000000     0.959600000000     0          
H840     H      0.224000000000     0.724000000000     0.935200000000     0          
C841     C      0.734400000000     0.959600000000     0.234400000000     0          
O842     O      0.724000000000     0.935200000000     0.224000000000     0          
C843     C      0.734400000000     0.459600000000     0.734400000000     0          
H844     H      0.724000000000     0.435200000000     0.724000000000     0          
C845     C      0.265600000000     0.959600000000     0.765600000000     0          
O846     O      0.280180000000     0.922060000000     0.780170000000     0          
C847     C      0.265600000000     0.540400000000     0.734400000000     0          
H848     H      0.276000000000     0.564800000000     0.724000000000     0          
C849     C      0.734400000000     0.040400000000     0.765600000000     0          
O850     O      0.724000000000     0.064800000000     0.776000000000     0          
C851     C      0.734400000000     0.540400000000     0.265600000000     0          
H852     H      0.724000000000     0.564800000000     0.276000000000     0          
C853     C      0.959600000000     0.765600000000     0.265600000000     0          
H854     H      0.935200000000     0.776000000000     0.276000000000     0          
C855     C      0.459600000000     0.765600000000     0.765600000000     0          
H856     H      0.435200000000     0.776000000000     0.776000000000     0          
C857     C      0.959600000000     0.234400000000     0.734400000000     0          
H858     H      0.935200000000     0.224000000000     0.724000000000     0          
C859     C      0.040400000000     0.765600000000     0.734400000000     0          
H860     H      0.064800000000     0.776000000000     0.724000000000     0          
C861     C      0.540400000000     0.765600000000     0.234400000000     0          
H862     H      0.564800000000     0.776000000000     0.224000000000     0          
C863     C      0.540400000000     0.234400000000     0.765600000000     0          
H864     H      0.564800000000     0.224000000000     0.776000000000     0          
O865     O      0.463310000000     0.036690000000     0.036690000000     0          
O866     O      0.463310000000     0.536690000000     0.536690000000     0          
O867     O      0.536690000000     0.963310000000     0.036690000000     0          
O868     O      0.536690000000     0.463310000000     0.536690000000     0          
O869     O      0.036690000000     0.463310000000     0.036690000000     0          
O870     O      0.536690000000     0.036690000000     0.963310000000     0          
O871     O      0.536690000000     0.536690000000     0.463310000000     0          
O872     O      0.036690000000     0.036690000000     0.463310000000     0          
O873     O      0.463310000000     0.963310000000     0.963310000000     0          
O874     O      0.463310000000     0.463310000000     0.463310000000     0          
O875     O      0.036690000000     0.536690000000     0.963310000000     0          
O876     O      0.963310000000     0.536690000000     0.036690000000     0          
O877     O      0.963310000000     0.463310000000     0.963310000000     0          
O878     O      0.963310000000     0.036690000000     0.536690000000     0          
O879     O      0.036690000000     0.963310000000     0.536690000000     0          
O880     O      0.963310000000     0.963310000000     0.463310000000     0          
O881     O      0.036690000000     0.463310000000     0.963310000000     0          
O882     O      0.963310000000     0.536690000000     0.963310000000     0          
O883     O      0.963310000000     0.036690000000     0.463310000000     0          
O884     O      0.463310000000     0.036690000000     0.963310000000     0          
O885     O      0.036690000000     0.536690000000     0.036690000000     0          
O886     O      0.963310000000     0.463310000000     0.036690000000     0          
O887     O      0.463310000000     0.463310000000     0.536690000000     0          
O888     O      0.463310000000     0.536690000000     0.463310000000     0          
O889     O      0.536690000000     0.036690000000     0.036690000000     0          
O890     O      0.536690000000     0.536690000000     0.536690000000     0          
O891     O      0.536690000000     0.963310000000     0.963310000000     0          
O892     O      0.536690000000     0.463310000000     0.463310000000     0          
O893     O      0.036690000000     0.963310000000     0.463310000000     0          
O894     O      0.463310000000     0.963310000000     0.036690000000     0          
O895     O      0.036690000000     0.036690000000     0.536690000000     0          
O896     O      0.963310000000     0.963310000000     0.536690000000     0          
Zr897    Zr     0.424640000000     0.000000000000     0.000000000000     0          
Zr898    Zr     0.424640000000     0.500000000000     0.500000000000     0          
Zr899    Zr     0.924640000000     0.000000000000     0.500000000000     0          
Zr900    Zr     0.924640000000     0.500000000000     0.000000000000     0          
Zr901    Zr     0.575360000000     0.000000000000     0.000000000000     0          
Zr902    Zr     0.575360000000     0.500000000000     0.500000000000     0          
Zr903    Zr     0.075360000000     0.000000000000     0.500000000000     0          
Zr904    Zr     0.075360000000     0.500000000000     0.000000000000     0          
Zr905    Zr     0.000000000000     0.424640000000     0.000000000000     0          
Zr906    Zr     0.000000000000     0.924640000000     0.500000000000     0          
Zr907    Zr     0.500000000000     0.424640000000     0.500000000000     0          
Zr908    Zr     0.500000000000     0.924640000000     0.000000000000     0          
Zr909    Zr     0.000000000000     0.575360000000     0.000000000000     0          
Zr910    Zr     0.000000000000     0.075360000000     0.500000000000     0          
Zr911    Zr     0.500000000000     0.575360000000     0.500000000000     0          
Zr912    Zr     0.500000000000     0.075360000000     0.000000000000     0          
Zr913    Zr     0.000000000000     0.000000000000     0.424640000000     0          
Zr914    Zr     0.000000000000     0.500000000000     0.924640000000     0          
Zr915    Zr     0.500000000000     0.000000000000     0.924640000000     0          
Zr916    Zr     0.500000000000     0.500000000000     0.424640000000     0          
Zr917    Zr     0.000000000000     0.000000000000     0.575360000000     0          
Zr918    Zr     0.000000000000     0.500000000000     0.075360000000     0          
Zr919    Zr     0.500000000000     0.000000000000     0.075360000000     0          
Zr920    Zr     0.500000000000     0.500000000000     0.575360000000     0          
C921     C      0.254280000000     0.190160000000     0.083520000000     0          
C922     C      0.747620000000     0.807360000000     0.085380000000     0          
C923     C      0.690170000000     0.245730000000     0.916460000000     0          
H924     H      0.198010000000     0.197980000000     0.424240000000     0          
C925     C      0.309820000000     0.754260000000     0.916470000000     0          
C926     C      0.085370000000     0.307370000000     0.247610000000     0          
C927     C      0.585380000000     0.307360000000     0.747620000000     0          
C928     C      0.085370000000     0.747610000000     0.807370000000     0          
C929     C      0.585380000000     0.747620000000     0.307360000000     0          
C930     C      0.916480000000     0.745710000000     0.190150000000     0          
C931     C      0.416600000000     0.690010000000     0.745590000000     0          
C932     C      0.916490000000     0.254280000000     0.809850000000     0          
C933     C      0.416370000000     0.254170000000     0.309710000000     0          
H934     H      0.231280000000     0.602120000000     0.768730000000     0          
H935     H      0.768730000000     0.602120000000     0.231270000000     0          
H936     H      0.268700000000     0.102130000000     0.231250000000     0          
H937     H      0.197970000000     0.424240000000     0.198010000000     0          
H938     H      0.801990000000     0.424240000000     0.802020000000     0          
H939     H      0.198010000000     0.302020000000     0.924240000000     0          
H940     H      0.801990000000     0.697980000000     0.924240000000     0          
H941     H      0.231280000000     0.731270000000     0.102120000000     0          
H942     H      0.768720000000     0.268730000000     0.102120000000     0          
C943     C      0.252390000000     0.307370000000     0.585370000000     0          
C944     C      0.252390000000     0.585370000000     0.307370000000     0          
C945     C      0.745680000000     0.583520000000     0.690130000000     0          
C946     C      0.690160000000     0.416480000000     0.254280000000     0          
H947     H      0.198000000000     0.924240000000     0.302020000000     0          
C948     C      0.309840000000     0.416480000000     0.745710000000     0          
H949     H      0.102120000000     0.231270000000     0.731280000000     0          
H950     H      0.602120000000     0.231270000000     0.231280000000     0          
H951     H      0.075760000000     0.802000000000     0.302010000000     0          
H952     H      0.575760000000     0.802030000000     0.801990000000     0          
H953     H      0.924240000000     0.197970000000     0.301980000000     0          
H954     H      0.424240000000     0.197970000000     0.801980000000     0          
H955     H      0.924240000000     0.801980000000     0.697970000000     0          
H956     H      0.424240000000     0.801980000000     0.197970000000     0          
C957     C      0.690160000000     0.254280000000     0.416480000000     0          
C958     C      0.309840000000     0.745710000000     0.416480000000     0          
C959     C      0.745680000000     0.690130000000     0.583520000000     0          
H960     H      0.801990000000     0.924240000000     0.697980000000     0          
H961     H      0.768720000000     0.102120000000     0.268730000000     0          
H962     H      0.231270000000     0.102120000000     0.731280000000     0          
H963     H      0.768720000000     0.231270000000     0.602120000000     0          
H964     H      0.231280000000     0.768730000000     0.602120000000     0          
H965     H      0.801980000000     0.802030000000     0.424240000000     0          
C966     C      0.690170000000     0.916470000000     0.245720000000     0          
H967     H      0.301990000000     0.924240000000     0.802030000000     0          
C968     C      0.747610000000     0.085380000000     0.807370000000     0          
H969     H      0.596350000000     0.777820000000     0.295670000000     0          
H970     H      0.612820000000     0.730350000000     0.317520000000     0          
H971     H      0.565830000000     0.752580000000     0.334930000000     0          
H972     H      0.412510000000     0.664090000000     0.723950000000     0          
H973     H      0.385730000000     0.699310000000     0.756430000000     0          
H974     H      0.434240000000     0.678290000000     0.772690000000     0          
H975     H      0.300450000000     0.756340000000     0.385550000000     0          
H976     H      0.335900000000     0.724210000000     0.412460000000     0          
H977     H      0.321400000000     0.772970000000     0.433970000000     0          
H978     H      0.772920000000     0.678550000000     0.566020000000     0          
H979     H      0.724160000000     0.664100000000     0.587550000000     0          
H980     H      0.756330000000     0.699510000000     0.614440000000     0          
H981     H      0.412420000000     0.275540000000     0.335880000000     0          
H982     H      0.433750000000     0.226780000000     0.321130000000     0          
H983     H      0.385420000000     0.243710000000     0.300230000000     0          
H984     H      0.247450000000     0.565820000000     0.334940000000     0          
H985     H      0.222190000000     0.596330000000     0.295700000000     0          
H986     H      0.269670000000     0.612820000000     0.317530000000     0          
H987     H      0.699560000000     0.385550000000     0.243650000000     0          
H988     H      0.678610000000     0.433970000000     0.227020000000     0          
H989     H      0.664100000000     0.412470000000     0.275770000000     0          
H990     H      0.612830000000     0.317520000000     0.730350000000     0          
H991     H      0.596350000000     0.295670000000     0.777820000000     0          
H992     H      0.565830000000     0.334930000000     0.752580000000     0          
H993     H      0.724160000000     0.587550000000     0.664100000000     0          
H994     H      0.772920000000     0.566010000000     0.678540000000     0          
H995     H      0.756330000000     0.614440000000     0.699500000000     0          
H996     H      0.335900000000     0.412460000000     0.724210000000     0          
H997     H      0.300450000000     0.385550000000     0.756340000000     0          
H998     H      0.321400000000     0.433970000000     0.772970000000     0          
H999     H      0.222190000000     0.295700000000     0.596340000000     0          
H1000    H      0.247450000000     0.334940000000     0.565820000000     0          
H1001    H      0.269670000000     0.317530000000     0.612820000000     0          
H1002    H      0.678620000000     0.227010000000     0.433970000000     0          
H1003    H      0.699560000000     0.243650000000     0.385550000000     0          
H1004    H      0.664100000000     0.275770000000     0.412470000000     0          
H1005    H      0.885570000000     0.756360000000     0.199530000000     0          
H1006    H      0.912470000000     0.724200000000     0.164100000000     0          
H1007    H      0.934000000000     0.772950000000     0.178580000000     0          
H1008    H      0.096330000000     0.777810000000     0.795700000000     0          
H1009    H      0.112820000000     0.730340000000     0.817530000000     0          
H1010    H      0.065820000000     0.752560000000     0.834940000000     0          
H1011    H      0.912480000000     0.275770000000     0.835900000000     0          
H1012    H      0.934000000000     0.227020000000     0.821400000000     0          
H1013    H      0.885570000000     0.243630000000     0.800460000000     0          
H1014    H      0.112820000000     0.317530000000     0.230330000000     0          
H1015    H      0.096330000000     0.295700000000     0.277810000000     0          
H1016    H      0.065820000000     0.334940000000     0.252560000000     0          
H1017    H      0.699570000000     0.885540000000     0.256340000000     0          
H1018    H      0.664110000000     0.912450000000     0.224230000000     0          
H1019    H      0.678620000000     0.933950000000     0.272990000000     0          
H1020    H      0.777810000000     0.096340000000     0.795690000000     0          
H1021    H      0.752560000000     0.065820000000     0.834940000000     0          
H1022    H      0.730330000000     0.112820000000     0.817520000000     0          
H1023    H      0.664110000000     0.224240000000     0.912450000000     0          
H1024    H      0.699580000000     0.256340000000     0.885540000000     0          
H1025    H      0.678630000000     0.272990000000     0.933950000000     0          
H1026    H      0.300420000000     0.743650000000     0.885540000000     0          
H1027    H      0.321360000000     0.726990000000     0.933950000000     0          
H1028    H      0.335900000000     0.775740000000     0.912460000000     0          
H1029    H      0.275780000000     0.164100000000     0.087540000000     0          
H1030    H      0.227030000000     0.178600000000     0.066030000000     0          
H1031    H      0.243650000000     0.199550000000     0.114450000000     0          
H1032    H      0.752580000000     0.834930000000     0.065830000000     0          
H1033    H      0.777810000000     0.795670000000     0.096350000000     0          
H1034    H      0.730340000000     0.817520000000     0.112830000000     0          


