data_CIGLUC

_audit_creation_method RASPA-1.0
_audit_creation_date 2020-11-2
_audit_author_name 'Rocio Bueno-Perez'

_cell_length_a    39.554
_cell_length_b    39.554
_cell_length_c    16.43
_cell_angle_alpha 90
_cell_angle_beta  90
_cell_angle_gamma 120
_cell_volume      22261.2

_symmetry_cell_setting          triclinic
_symmetry_space_group_name_Hall 'P 1'
_symmetry_space_group_name_H-M  'P 1'
_symmetry_Int_Tables_number     1

_symmetry_equiv_pos_as_xyz 'x,y,z'

loop_
_atom_site_label
_atom_site_type_symbol
_atom_site_fract_x
_atom_site_fract_y
_atom_site_fract_z
_atom_site_charge
C1       C      0.398870000000     0.906160000000     0.366400000000     0          
C2       C      0.366150000000     0.875110000000     0.316700000000     0          
C3       C      0.347100000000     0.884840000000     0.258600000000     0          
H4       H      0.353620000000     0.911230000000     0.251040000000     0          
C5       C      0.318200000000     0.855200000000     0.211500000000     0          
H6       H      0.305090000000     0.861730000000     0.171510000000     0          
C7       C      0.308100000000     0.816530000000     0.221500000000     0          
C8       C      0.327800000000     0.806600000000     0.280000000000     0          
H9       H      0.321610000000     0.780220000000     0.286900000000     0          
C10      C      0.356700000000     0.836250000000     0.327600000000     0          
H11      H      0.369960000000     0.830000000000     0.367680000000     0          
C12      C      0.276900000000     0.784100000000     0.170900000000     0          
C13      C      0.276660000000     0.785020000000     0.086800000000     0          
C14      C      0.309300000000     0.815140000000     0.040700000000     0          
H15      H      0.330960000000     0.835210000000     0.069010000000     0          
H16      H      0.632480000000     0.023000000000     0.780660000000     0          
O17      O      0.408280000000     0.941410000000     0.349400000000     0          
O18      O      0.414220000000     0.895370000000     0.419100000000     0          
H19      H      0.569300000000     0.976640000000     0.916090000000     0          
H20      H      0.679770000000     0.023360000000     0.675690000000     0          
C21      C      0.093840000000     0.492710000000     0.366400000000     0          
C22      C      0.124890000000     0.491040000000     0.316700000000     0          
C23      C      0.115160000000     0.462260000000     0.258600000000     0          
H24      H      0.088770000000     0.442390000000     0.251040000000     0          
C25      C      0.144800000000     0.463000000000     0.211500000000     0          
H26      H      0.138270000000     0.443360000000     0.171510000000     0          
C27      C      0.183470000000     0.491570000000     0.221500000000     0          
C28      C      0.193400000000     0.521200000000     0.280000000000     0          
H29      H      0.219780000000     0.541390000000     0.286900000000     0          
C30      C      0.163750000000     0.520450000000     0.327600000000     0          
H31      H      0.170000000000     0.539960000000     0.367680000000     0          
C32      C      0.215900000000     0.492800000000     0.170900000000     0          
C33      C      0.214980000000     0.491640000000     0.086800000000     0          
C34      C      0.184860000000     0.494160000000     0.040700000000     0          
H35      H      0.164790000000     0.495750000000     0.069010000000     0          
H36      H      0.977000000000     0.609480000000     0.780660000000     0          
O37      O      0.058590000000     0.466870000000     0.349400000000     0          
O38      O      0.104630000000     0.518850000000     0.419100000000     0          
H39      H      0.023360000000     0.592660000000     0.916090000000     0          
H40      H      0.976640000000     0.656410000000     0.675690000000     0          
C41      C      0.507290000000     0.601130000000     0.366400000000     0          
C42      C      0.508960000000     0.633850000000     0.316700000000     0          
C43      C      0.537740000000     0.652900000000     0.258600000000     0          
H44      H      0.557610000000     0.646380000000     0.251040000000     0          
C45      C      0.537000000000     0.681800000000     0.211500000000     0          
H46      H      0.556640000000     0.694910000000     0.171510000000     0          
C47      C      0.508430000000     0.691900000000     0.221500000000     0          
C48      C      0.478800000000     0.672200000000     0.280000000000     0          
H49      H      0.458610000000     0.678390000000     0.286900000000     0          
C50      C      0.479550000000     0.643300000000     0.327600000000     0          
H51      H      0.460040000000     0.630040000000     0.367680000000     0          
C52      C      0.507200000000     0.723100000000     0.170900000000     0          
C53      C      0.508360000000     0.723340000000     0.086800000000     0          
C54      C      0.505840000000     0.690700000000     0.040700000000     0          
H55      H      0.504250000000     0.669040000000     0.069010000000     0          
H56      H      0.390520000000     0.367520000000     0.780660000000     0          
O57      O      0.533130000000     0.591720000000     0.349400000000     0          
O58      O      0.481150000000     0.585780000000     0.419100000000     0          
H59      H      0.407340000000     0.430700000000     0.916090000000     0          
H60      H      0.343590000000     0.320230000000     0.675690000000     0          
C61      C      0.601130000000     0.093840000000     0.366400000000     0          
C62      C      0.633850000000     0.124890000000     0.316700000000     0          
C63      C      0.652900000000     0.115160000000     0.258600000000     0          
H64      H      0.646380000000     0.088770000000     0.251040000000     0          
C65      C      0.681800000000     0.144800000000     0.211500000000     0          
H66      H      0.694910000000     0.138270000000     0.171510000000     0          
C67      C      0.691900000000     0.183470000000     0.221500000000     0          
C68      C      0.672200000000     0.193400000000     0.280000000000     0          
H69      H      0.678390000000     0.219780000000     0.286900000000     0          
C70      C      0.643300000000     0.163750000000     0.327600000000     0          
H71      H      0.630040000000     0.170000000000     0.367680000000     0          
C72      C      0.723100000000     0.215900000000     0.170900000000     0          
C73      C      0.723340000000     0.214980000000     0.086800000000     0          
C74      C      0.690700000000     0.184860000000     0.040700000000     0          
H75      H      0.669040000000     0.164790000000     0.069010000000     0          
H76      H      0.367520000000     0.977000000000     0.780660000000     0          
O77      O      0.591720000000     0.058590000000     0.349400000000     0          
O78      O      0.585780000000     0.104630000000     0.419100000000     0          
H79      H      0.430700000000     0.023360000000     0.916090000000     0          
H80      H      0.320230000000     0.976640000000     0.675690000000     0          
C81      C      0.906160000000     0.507290000000     0.366400000000     0          
C82      C      0.875110000000     0.508960000000     0.316700000000     0          
C83      C      0.884840000000     0.537740000000     0.258600000000     0          
H84      H      0.911230000000     0.557610000000     0.251040000000     0          
C85      C      0.855200000000     0.537000000000     0.211500000000     0          
H86      H      0.861730000000     0.556640000000     0.171510000000     0          
C87      C      0.816530000000     0.508430000000     0.221500000000     0          
C88      C      0.806600000000     0.478800000000     0.280000000000     0          
H89      H      0.780220000000     0.458610000000     0.286900000000     0          
C90      C      0.836250000000     0.479550000000     0.327600000000     0          
H91      H      0.830000000000     0.460040000000     0.367680000000     0          
C92      C      0.784100000000     0.507200000000     0.170900000000     0          
C93      C      0.785020000000     0.508360000000     0.086800000000     0          
C94      C      0.815140000000     0.505840000000     0.040700000000     0          
H95      H      0.835210000000     0.504250000000     0.069010000000     0          
O96      O      0.941410000000     0.533130000000     0.349400000000     0          
O97      O      0.895370000000     0.481150000000     0.419100000000     0          
C98      C      0.492710000000     0.398870000000     0.366400000000     0          
C99      C      0.491040000000     0.366150000000     0.316700000000     0          
C100     C      0.462260000000     0.347100000000     0.258600000000     0          
H101     H      0.442390000000     0.353620000000     0.251040000000     0          
C102     C      0.463000000000     0.318200000000     0.211500000000     0          
H103     H      0.443360000000     0.305090000000     0.171510000000     0          
C104     C      0.491570000000     0.308100000000     0.221500000000     0          
C105     C      0.521200000000     0.327800000000     0.280000000000     0          
H106     H      0.541390000000     0.321610000000     0.286900000000     0          
C107     C      0.520450000000     0.356700000000     0.327600000000     0          
H108     H      0.539960000000     0.369960000000     0.367680000000     0          
C109     C      0.492800000000     0.276900000000     0.170900000000     0          
C110     C      0.491640000000     0.276660000000     0.086800000000     0          
C111     C      0.494160000000     0.309300000000     0.040700000000     0          
H112     H      0.495750000000     0.330960000000     0.069010000000     0          
H113     H      0.609480000000     0.632480000000     0.780660000000     0          
O114     O      0.466870000000     0.408280000000     0.349400000000     0          
O115     O      0.518850000000     0.414220000000     0.419100000000     0          
H116     H      0.592660000000     0.569300000000     0.916090000000     0          
H117     H      0.656410000000     0.679770000000     0.675690000000     0          
C118     C      0.906160000000     0.398870000000     0.633600000000     0          
C119     C      0.875110000000     0.366150000000     0.683300000000     0          
C120     C      0.884840000000     0.347100000000     0.741400000000     0          
H121     H      0.911230000000     0.353620000000     0.748960000000     0          
C122     C      0.855200000000     0.318200000000     0.788500000000     0          
H123     H      0.861730000000     0.305090000000     0.828490000000     0          
C124     C      0.816530000000     0.308100000000     0.778500000000     0          
C125     C      0.806600000000     0.327800000000     0.720000000000     0          
H126     H      0.780220000000     0.321610000000     0.713100000000     0          
C127     C      0.836250000000     0.356700000000     0.672400000000     0          
H128     H      0.830000000000     0.369960000000     0.632320000000     0          
C129     C      0.784100000000     0.276900000000     0.829100000000     0          
C130     C      0.785020000000     0.276660000000     0.913200000000     0          
C131     C      0.815140000000     0.309300000000     0.959300000000     0          
H132     H      0.835210000000     0.330960000000     0.930990000000     0          
H133     H      0.023000000000     0.632480000000     0.219340000000     0          
O134     O      0.941410000000     0.408280000000     0.650600000000     0          
O135     O      0.895370000000     0.414220000000     0.580900000000     0          
H136     H      0.976640000000     0.569300000000     0.083910000000     0          
H137     H      0.023360000000     0.679770000000     0.324310000000     0          
C138     C      0.492710000000     0.093840000000     0.633600000000     0          
C139     C      0.491040000000     0.124890000000     0.683300000000     0          
C140     C      0.462260000000     0.115160000000     0.741400000000     0          
H141     H      0.442390000000     0.088770000000     0.748960000000     0          
C142     C      0.463000000000     0.144800000000     0.788500000000     0          
H143     H      0.443360000000     0.138270000000     0.828490000000     0          
C144     C      0.491570000000     0.183470000000     0.778500000000     0          
C145     C      0.521200000000     0.193400000000     0.720000000000     0          
H146     H      0.541390000000     0.219780000000     0.713100000000     0          
C147     C      0.520450000000     0.163750000000     0.672400000000     0          
H148     H      0.539960000000     0.170000000000     0.632320000000     0          
C149     C      0.492800000000     0.215900000000     0.829100000000     0          
C150     C      0.491640000000     0.214980000000     0.913200000000     0          
C151     C      0.494160000000     0.184860000000     0.959300000000     0          
H152     H      0.495750000000     0.164790000000     0.930990000000     0          
H153     H      0.609480000000     0.977000000000     0.219340000000     0          
O154     O      0.466870000000     0.058590000000     0.650600000000     0          
O155     O      0.518850000000     0.104630000000     0.580900000000     0          
H156     H      0.592660000000     0.023360000000     0.083910000000     0          
H157     H      0.656410000000     0.976640000000     0.324310000000     0          
C158     C      0.601130000000     0.507290000000     0.633600000000     0          
C159     C      0.633850000000     0.508960000000     0.683300000000     0          
C160     C      0.652900000000     0.537740000000     0.741400000000     0          
H161     H      0.646380000000     0.557610000000     0.748960000000     0          
C162     C      0.681800000000     0.537000000000     0.788500000000     0          
H163     H      0.694910000000     0.556640000000     0.828490000000     0          
C164     C      0.691900000000     0.508430000000     0.778500000000     0          
C165     C      0.672200000000     0.478800000000     0.720000000000     0          
H166     H      0.678390000000     0.458610000000     0.713100000000     0          
C167     C      0.643300000000     0.479550000000     0.672400000000     0          
H168     H      0.630040000000     0.460040000000     0.632320000000     0          
C169     C      0.723100000000     0.507200000000     0.829100000000     0          
C170     C      0.723340000000     0.508360000000     0.913200000000     0          
C171     C      0.690700000000     0.505840000000     0.959300000000     0          
H172     H      0.669040000000     0.504250000000     0.930990000000     0          
H173     H      0.367520000000     0.390520000000     0.219340000000     0          
O174     O      0.591720000000     0.533130000000     0.650600000000     0          
O175     O      0.585780000000     0.481150000000     0.580900000000     0          
H176     H      0.430700000000     0.407340000000     0.083910000000     0          
H177     H      0.320230000000     0.343590000000     0.324310000000     0          
C178     C      0.093840000000     0.601130000000     0.633600000000     0          
C179     C      0.124890000000     0.633850000000     0.683300000000     0          
C180     C      0.115160000000     0.652900000000     0.741400000000     0          
H181     H      0.088770000000     0.646380000000     0.748960000000     0          
C182     C      0.144800000000     0.681800000000     0.788500000000     0          
H183     H      0.138270000000     0.694910000000     0.828490000000     0          
C184     C      0.183470000000     0.691900000000     0.778500000000     0          
C185     C      0.193400000000     0.672200000000     0.720000000000     0          
H186     H      0.219780000000     0.678390000000     0.713100000000     0          
C187     C      0.163750000000     0.643300000000     0.672400000000     0          
H188     H      0.170000000000     0.630040000000     0.632320000000     0          
C189     C      0.215900000000     0.723100000000     0.829100000000     0          
C190     C      0.214980000000     0.723340000000     0.913200000000     0          
C191     C      0.184860000000     0.690700000000     0.959300000000     0          
H192     H      0.164790000000     0.669040000000     0.930990000000     0          
H193     H      0.977000000000     0.367520000000     0.219340000000     0          
O194     O      0.058590000000     0.591720000000     0.650600000000     0          
O195     O      0.104630000000     0.585780000000     0.580900000000     0          
H196     H      0.023360000000     0.430700000000     0.083910000000     0          
H197     H      0.976640000000     0.320230000000     0.324310000000     0          
C198     C      0.507290000000     0.906160000000     0.633600000000     0          
C199     C      0.508960000000     0.875110000000     0.683300000000     0          
C200     C      0.537740000000     0.884840000000     0.741400000000     0          
H201     H      0.557610000000     0.911230000000     0.748960000000     0          
C202     C      0.537000000000     0.855200000000     0.788500000000     0          
H203     H      0.556640000000     0.861730000000     0.828490000000     0          
C204     C      0.508430000000     0.816530000000     0.778500000000     0          
C205     C      0.478800000000     0.806600000000     0.720000000000     0          
H206     H      0.458610000000     0.780220000000     0.713100000000     0          
C207     C      0.479550000000     0.836250000000     0.672400000000     0          
H208     H      0.460040000000     0.830000000000     0.632320000000     0          
C209     C      0.507200000000     0.784100000000     0.829100000000     0          
C210     C      0.508360000000     0.785020000000     0.913200000000     0          
C211     C      0.505840000000     0.815140000000     0.959300000000     0          
H212     H      0.504250000000     0.835210000000     0.930990000000     0          
H213     H      0.390520000000     0.023000000000     0.219340000000     0          
O214     O      0.533130000000     0.941410000000     0.650600000000     0          
O215     O      0.481150000000     0.895370000000     0.580900000000     0          
H216     H      0.407340000000     0.976640000000     0.083910000000     0          
H217     H      0.343590000000     0.023360000000     0.324310000000     0          
C218     C      0.398870000000     0.492710000000     0.633600000000     0          
C219     C      0.366150000000     0.491040000000     0.683300000000     0          
C220     C      0.347100000000     0.462260000000     0.741400000000     0          
H221     H      0.353620000000     0.442390000000     0.748960000000     0          
C222     C      0.318200000000     0.463000000000     0.788500000000     0          
H223     H      0.305090000000     0.443360000000     0.828490000000     0          
C224     C      0.308100000000     0.491570000000     0.778500000000     0          
C225     C      0.327800000000     0.521200000000     0.720000000000     0          
H226     H      0.321610000000     0.541390000000     0.713100000000     0          
C227     C      0.356700000000     0.520450000000     0.672400000000     0          
H228     H      0.369960000000     0.539960000000     0.632320000000     0          
C229     C      0.276900000000     0.492800000000     0.829100000000     0          
C230     C      0.276660000000     0.491640000000     0.913200000000     0          
C231     C      0.309300000000     0.494160000000     0.959300000000     0          
H232     H      0.330960000000     0.495750000000     0.930990000000     0          
O233     O      0.408280000000     0.466870000000     0.650600000000     0          
O234     O      0.414220000000     0.518850000000     0.580900000000     0          
V235     V      0.545200000000     0.515300000000     0.181200000000     0          
C236     C      0.601130000000     0.093840000000     0.633600000000     0          
C237     C      0.633850000000     0.124890000000     0.683300000000     0          
C238     C      0.652900000000     0.115160000000     0.741400000000     0          
H239     H      0.646380000000     0.088770000000     0.748960000000     0          
C240     C      0.681800000000     0.144800000000     0.788500000000     0          
H241     H      0.694910000000     0.138270000000     0.828490000000     0          
C242     C      0.691900000000     0.183470000000     0.778500000000     0          
C243     C      0.672200000000     0.193400000000     0.720000000000     0          
H244     H      0.678390000000     0.219780000000     0.713100000000     0          
C245     C      0.643300000000     0.163750000000     0.672400000000     0          
H246     H      0.630040000000     0.170000000000     0.632320000000     0          
C247     C      0.723100000000     0.215900000000     0.829100000000     0          
C248     C      0.723340000000     0.214980000000     0.913200000000     0          
C249     C      0.690700000000     0.184860000000     0.959300000000     0          
H250     H      0.669040000000     0.164790000000     0.930990000000     0          
H251     H      0.367520000000     0.977000000000     0.219340000000     0          
O252     O      0.591720000000     0.058590000000     0.650600000000     0          
O253     O      0.585780000000     0.104630000000     0.580900000000     0          
H254     H      0.430700000000     0.023360000000     0.083910000000     0          
H255     H      0.320230000000     0.976640000000     0.324310000000     0          
C256     C      0.906160000000     0.507290000000     0.633600000000     0          
C257     C      0.875110000000     0.508960000000     0.683300000000     0          
C258     C      0.884840000000     0.537740000000     0.741400000000     0          
H259     H      0.911230000000     0.557610000000     0.748960000000     0          
C260     C      0.855200000000     0.537000000000     0.788500000000     0          
H261     H      0.861730000000     0.556640000000     0.828490000000     0          
C262     C      0.816530000000     0.508430000000     0.778500000000     0          
C263     C      0.806600000000     0.478800000000     0.720000000000     0          
H264     H      0.780220000000     0.458610000000     0.713100000000     0          
C265     C      0.836250000000     0.479550000000     0.672400000000     0          
H266     H      0.830000000000     0.460040000000     0.632320000000     0          
C267     C      0.784100000000     0.507200000000     0.829100000000     0          
C268     C      0.785020000000     0.508360000000     0.913200000000     0          
C269     C      0.815140000000     0.505840000000     0.959300000000     0          
H270     H      0.835210000000     0.504250000000     0.930990000000     0          
H271     H      0.023000000000     0.390520000000     0.219340000000     0          
O272     O      0.941410000000     0.533130000000     0.650600000000     0          
O273     O      0.895370000000     0.481150000000     0.580900000000     0          
H274     H      0.976640000000     0.407340000000     0.083910000000     0          
H275     H      0.023360000000     0.343590000000     0.324310000000     0          
C276     C      0.492710000000     0.398870000000     0.633600000000     0          
C277     C      0.491040000000     0.366150000000     0.683300000000     0          
C278     C      0.462260000000     0.347100000000     0.741400000000     0          
H279     H      0.442390000000     0.353620000000     0.748960000000     0          
C280     C      0.463000000000     0.318200000000     0.788500000000     0          
H281     H      0.443360000000     0.305090000000     0.828490000000     0          
C282     C      0.491570000000     0.308100000000     0.778500000000     0          
C283     C      0.521200000000     0.327800000000     0.720000000000     0          
H284     H      0.541390000000     0.321610000000     0.713100000000     0          
C285     C      0.520450000000     0.356700000000     0.672400000000     0          
H286     H      0.539960000000     0.369960000000     0.632320000000     0          
C287     C      0.492800000000     0.276900000000     0.829100000000     0          
C288     C      0.491640000000     0.276660000000     0.913200000000     0          
C289     C      0.494160000000     0.309300000000     0.959300000000     0          
H290     H      0.495750000000     0.330960000000     0.930990000000     0          
O291     O      0.466870000000     0.408280000000     0.650600000000     0          
O292     O      0.518850000000     0.414220000000     0.580900000000     0          
C293     C      0.398870000000     0.906160000000     0.633600000000     0          
C294     C      0.366150000000     0.875110000000     0.683300000000     0          
C295     C      0.347100000000     0.884840000000     0.741400000000     0          
H296     H      0.353620000000     0.911230000000     0.748960000000     0          
C297     C      0.318200000000     0.855200000000     0.788500000000     0          
H298     H      0.305090000000     0.861730000000     0.828490000000     0          
C299     C      0.308100000000     0.816530000000     0.778500000000     0          
C300     C      0.327800000000     0.806600000000     0.720000000000     0          
H301     H      0.321610000000     0.780220000000     0.713100000000     0          
C302     C      0.356700000000     0.836250000000     0.672400000000     0          
H303     H      0.369960000000     0.830000000000     0.632320000000     0          
C304     C      0.276900000000     0.784100000000     0.829100000000     0          
C305     C      0.276660000000     0.785020000000     0.913200000000     0          
C306     C      0.309300000000     0.815140000000     0.959300000000     0          
H307     H      0.330960000000     0.835210000000     0.930990000000     0          
H308     H      0.632480000000     0.023000000000     0.219340000000     0          
O309     O      0.408280000000     0.941410000000     0.650600000000     0          
O310     O      0.414220000000     0.895370000000     0.580900000000     0          
H311     H      0.569300000000     0.976640000000     0.083910000000     0          
H312     H      0.679770000000     0.023360000000     0.324310000000     0          
C313     C      0.093840000000     0.492710000000     0.633600000000     0          
C314     C      0.124890000000     0.491040000000     0.683300000000     0          
C315     C      0.115160000000     0.462260000000     0.741400000000     0          
H316     H      0.088770000000     0.442390000000     0.748960000000     0          
C317     C      0.144800000000     0.463000000000     0.788500000000     0          
H318     H      0.138270000000     0.443360000000     0.828490000000     0          
C319     C      0.183470000000     0.491570000000     0.778500000000     0          
C320     C      0.193400000000     0.521200000000     0.720000000000     0          
H321     H      0.219780000000     0.541390000000     0.713100000000     0          
C322     C      0.163750000000     0.520450000000     0.672400000000     0          
H323     H      0.170000000000     0.539960000000     0.632320000000     0          
C324     C      0.215900000000     0.492800000000     0.829100000000     0          
C325     C      0.214980000000     0.491640000000     0.913200000000     0          
C326     C      0.184860000000     0.494160000000     0.959300000000     0          
H327     H      0.164790000000     0.495750000000     0.930990000000     0          
H328     H      0.977000000000     0.609480000000     0.219340000000     0          
O329     O      0.058590000000     0.466870000000     0.650600000000     0          
O330     O      0.104630000000     0.518850000000     0.580900000000     0          
H331     H      0.023360000000     0.592660000000     0.083910000000     0          
H332     H      0.976640000000     0.656410000000     0.324310000000     0          
C333     C      0.507290000000     0.601130000000     0.633600000000     0          
C334     C      0.508960000000     0.633850000000     0.683300000000     0          
C335     C      0.537740000000     0.652900000000     0.741400000000     0          
H336     H      0.557610000000     0.646380000000     0.748960000000     0          
C337     C      0.537000000000     0.681800000000     0.788500000000     0          
H338     H      0.556640000000     0.694910000000     0.828490000000     0          
C339     C      0.508430000000     0.691900000000     0.778500000000     0          
C340     C      0.478800000000     0.672200000000     0.720000000000     0          
H341     H      0.458610000000     0.678390000000     0.713100000000     0          
C342     C      0.479550000000     0.643300000000     0.672400000000     0          
H343     H      0.460040000000     0.630040000000     0.632320000000     0          
C344     C      0.507200000000     0.723100000000     0.829100000000     0          
C345     C      0.508360000000     0.723340000000     0.913200000000     0          
C346     C      0.505840000000     0.690700000000     0.959300000000     0          
H347     H      0.504250000000     0.669040000000     0.930990000000     0          
H348     H      0.390520000000     0.367520000000     0.219340000000     0          
O349     O      0.533130000000     0.591720000000     0.650600000000     0          
O350     O      0.481150000000     0.585780000000     0.580900000000     0          
H351     H      0.407340000000     0.430700000000     0.083910000000     0          
H352     H      0.343590000000     0.320230000000     0.324310000000     0          
C353     C      0.093840000000     0.601130000000     0.366400000000     0          
C354     C      0.124890000000     0.633850000000     0.316700000000     0          
C355     C      0.115160000000     0.652900000000     0.258600000000     0          
H356     H      0.088770000000     0.646380000000     0.251040000000     0          
C357     C      0.144800000000     0.681800000000     0.211500000000     0          
H358     H      0.138270000000     0.694910000000     0.171510000000     0          
C359     C      0.183470000000     0.691900000000     0.221500000000     0          
C360     C      0.193400000000     0.672200000000     0.280000000000     0          
H361     H      0.219780000000     0.678390000000     0.286900000000     0          
C362     C      0.163750000000     0.643300000000     0.327600000000     0          
H363     H      0.170000000000     0.630040000000     0.367680000000     0          
C364     C      0.215900000000     0.723100000000     0.170900000000     0          
C365     C      0.214980000000     0.723340000000     0.086800000000     0          
C366     C      0.184860000000     0.690700000000     0.040700000000     0          
H367     H      0.164790000000     0.669040000000     0.069010000000     0          
O368     O      0.058590000000     0.591720000000     0.349400000000     0          
O369     O      0.104630000000     0.585780000000     0.419100000000     0          
C370     C      0.507290000000     0.906160000000     0.366400000000     0          
C371     C      0.508960000000     0.875110000000     0.316700000000     0          
C372     C      0.537740000000     0.884840000000     0.258600000000     0          
H373     H      0.557610000000     0.911230000000     0.251040000000     0          
C374     C      0.537000000000     0.855200000000     0.211500000000     0          
H375     H      0.556640000000     0.861730000000     0.171510000000     0          
C376     C      0.508430000000     0.816530000000     0.221500000000     0          
C377     C      0.478800000000     0.806600000000     0.280000000000     0          
H378     H      0.458610000000     0.780220000000     0.286900000000     0          
C379     C      0.479550000000     0.836250000000     0.327600000000     0          
H380     H      0.460040000000     0.830000000000     0.367680000000     0          
C381     C      0.507200000000     0.784100000000     0.170900000000     0          
C382     C      0.508360000000     0.785020000000     0.086800000000     0          
C383     C      0.505840000000     0.815140000000     0.040700000000     0          
H384     H      0.504250000000     0.835210000000     0.069010000000     0          
H385     H      0.390520000000     0.023000000000     0.780660000000     0          
O386     O      0.533130000000     0.941410000000     0.349400000000     0          
O387     O      0.481150000000     0.895370000000     0.419100000000     0          
H388     H      0.407340000000     0.976640000000     0.916090000000     0          
H389     H      0.343590000000     0.023360000000     0.675690000000     0          
C390     C      0.398870000000     0.492710000000     0.366400000000     0          
C391     C      0.366150000000     0.491040000000     0.316700000000     0          
C392     C      0.347100000000     0.462260000000     0.258600000000     0          
H393     H      0.353620000000     0.442390000000     0.251040000000     0          
C394     C      0.318200000000     0.463000000000     0.211500000000     0          
H395     H      0.305090000000     0.443360000000     0.171510000000     0          
C396     C      0.308100000000     0.491570000000     0.221500000000     0          
C397     C      0.327800000000     0.521200000000     0.280000000000     0          
H398     H      0.321610000000     0.541390000000     0.286900000000     0          
C399     C      0.356700000000     0.520450000000     0.327600000000     0          
H400     H      0.369960000000     0.539960000000     0.367680000000     0          
C401     C      0.276900000000     0.492800000000     0.170900000000     0          
C402     C      0.276660000000     0.491640000000     0.086800000000     0          
C403     C      0.309300000000     0.494160000000     0.040700000000     0          
H404     H      0.330960000000     0.495750000000     0.069010000000     0          
H405     H      0.632480000000     0.609480000000     0.780660000000     0          
O406     O      0.408280000000     0.466870000000     0.349400000000     0          
O407     O      0.414220000000     0.518850000000     0.419100000000     0          
H408     H      0.569300000000     0.592660000000     0.916090000000     0          
H409     H      0.679770000000     0.656410000000     0.675690000000     0          
C410     C      0.906160000000     0.398870000000     0.366400000000     0          
C411     C      0.875110000000     0.366150000000     0.316700000000     0          
C412     C      0.884840000000     0.347100000000     0.258600000000     0          
H413     H      0.911230000000     0.353620000000     0.251040000000     0          
C414     C      0.855200000000     0.318200000000     0.211500000000     0          
H415     H      0.861730000000     0.305090000000     0.171510000000     0          
C416     C      0.816530000000     0.308100000000     0.221500000000     0          
C417     C      0.806600000000     0.327800000000     0.280000000000     0          
H418     H      0.780220000000     0.321610000000     0.286900000000     0          
C419     C      0.836250000000     0.356700000000     0.327600000000     0          
H420     H      0.830000000000     0.369960000000     0.367680000000     0          
C421     C      0.784100000000     0.276900000000     0.170900000000     0          
C422     C      0.785020000000     0.276660000000     0.086800000000     0          
C423     C      0.815140000000     0.309300000000     0.040700000000     0          
H424     H      0.835210000000     0.330960000000     0.069010000000     0          
H425     H      0.023000000000     0.632480000000     0.780660000000     0          
O426     O      0.941410000000     0.408280000000     0.349400000000     0          
O427     O      0.895370000000     0.414220000000     0.419100000000     0          
H428     H      0.976640000000     0.569300000000     0.916090000000     0          
H429     H      0.023360000000     0.679770000000     0.675690000000     0          
C430     C      0.492710000000     0.093840000000     0.366400000000     0          
C431     C      0.491040000000     0.124890000000     0.316700000000     0          
C432     C      0.462260000000     0.115160000000     0.258600000000     0          
H433     H      0.442390000000     0.088770000000     0.251040000000     0          
C434     C      0.463000000000     0.144800000000     0.211500000000     0          
H435     H      0.443360000000     0.138270000000     0.171510000000     0          
C436     C      0.491570000000     0.183470000000     0.221500000000     0          
C437     C      0.521200000000     0.193400000000     0.280000000000     0          
H438     H      0.541390000000     0.219780000000     0.286900000000     0          
C439     C      0.520450000000     0.163750000000     0.327600000000     0          
H440     H      0.539960000000     0.170000000000     0.367680000000     0          
C441     C      0.492800000000     0.215900000000     0.170900000000     0          
C442     C      0.491640000000     0.214980000000     0.086800000000     0          
C443     C      0.494160000000     0.184860000000     0.040700000000     0          
H444     H      0.495750000000     0.164790000000     0.069010000000     0          
H445     H      0.609480000000     0.977000000000     0.780660000000     0          
O446     O      0.466870000000     0.058590000000     0.349400000000     0          
O447     O      0.518850000000     0.104630000000     0.419100000000     0          
H448     H      0.592660000000     0.023360000000     0.916090000000     0          
H449     H      0.656410000000     0.976640000000     0.675690000000     0          
C450     C      0.601130000000     0.507290000000     0.366400000000     0          
C451     C      0.633850000000     0.508960000000     0.316700000000     0          
C452     C      0.652900000000     0.537740000000     0.258600000000     0          
H453     H      0.646380000000     0.557610000000     0.251040000000     0          
C454     C      0.681800000000     0.537000000000     0.211500000000     0          
H455     H      0.694910000000     0.556640000000     0.171510000000     0          
C456     C      0.691900000000     0.508430000000     0.221500000000     0          
C457     C      0.672200000000     0.478800000000     0.280000000000     0          
H458     H      0.678390000000     0.458610000000     0.286900000000     0          
C459     C      0.643300000000     0.479550000000     0.327600000000     0          
H460     H      0.630040000000     0.460040000000     0.367680000000     0          
C461     C      0.723100000000     0.507200000000     0.170900000000     0          
C462     C      0.723340000000     0.508360000000     0.086800000000     0          
C463     C      0.690700000000     0.505840000000     0.040700000000     0          
H464     H      0.669040000000     0.504250000000     0.069010000000     0          
H465     H      0.367520000000     0.390520000000     0.780660000000     0          
O466     O      0.591720000000     0.533130000000     0.349400000000     0          
O467     O      0.585780000000     0.481150000000     0.419100000000     0          
H468     H      0.430700000000     0.407340000000     0.916090000000     0          
H469     H      0.320230000000     0.343590000000     0.675690000000     0          
C470     C      0.246100000000     0.753900000000     0.212300000000     0          
H471     H      0.245660000000     0.754340000000     0.270120000000     0          
C472     C      0.245450000000     0.754550000000     0.042900000000     0          
C473     C      0.246100000000     0.492200000000     0.212300000000     0          
H474     H      0.245660000000     0.491320000000     0.270120000000     0          
C475     C      0.245450000000     0.490900000000     0.042900000000     0          
C476     C      0.507800000000     0.753900000000     0.212300000000     0          
H477     H      0.508680000000     0.754340000000     0.270120000000     0          
C478     C      0.509100000000     0.754550000000     0.042900000000     0          
C479     C      0.753900000000     0.246100000000     0.212300000000     0          
H480     H      0.754340000000     0.245660000000     0.270120000000     0          
C481     C      0.754550000000     0.245450000000     0.042900000000     0          
C482     C      0.753900000000     0.507800000000     0.212300000000     0          
H483     H      0.754340000000     0.508680000000     0.270120000000     0          
C484     C      0.754550000000     0.509100000000     0.042900000000     0          
C485     C      0.492200000000     0.246100000000     0.212300000000     0          
H486     H      0.491320000000     0.245660000000     0.270120000000     0          
C487     C      0.490900000000     0.245450000000     0.042900000000     0          
C488     C      0.753900000000     0.246100000000     0.787700000000     0          
H489     H      0.754340000000     0.245660000000     0.729880000000     0          
C490     C      0.754550000000     0.245450000000     0.957100000000     0          
C491     C      0.492200000000     0.246100000000     0.787700000000     0          
H492     H      0.491320000000     0.245660000000     0.729880000000     0          
C493     C      0.490900000000     0.245450000000     0.957100000000     0          
C494     C      0.753900000000     0.507800000000     0.787700000000     0          
H495     H      0.754340000000     0.508680000000     0.729880000000     0          
C496     C      0.754550000000     0.509100000000     0.957100000000     0          
C497     C      0.246100000000     0.753900000000     0.787700000000     0          
H498     H      0.245660000000     0.754340000000     0.729880000000     0          
C499     C      0.245450000000     0.754550000000     0.957100000000     0          
C500     C      0.507800000000     0.753900000000     0.787700000000     0          
H501     H      0.508680000000     0.754340000000     0.729880000000     0          
C502     C      0.509100000000     0.754550000000     0.957100000000     0          
C503     C      0.246100000000     0.492200000000     0.787700000000     0          
H504     H      0.245660000000     0.491320000000     0.729880000000     0          
C505     C      0.245450000000     0.490900000000     0.957100000000     0          
C506     C      0.621800000000     0.000000000000     0.678000000000     0          
C507     C      0.610100000000     0.000000000000     0.755400000000     0          
C508     C      0.577600000000     0.000000000000     0.787600000000     0          
O509     O      0.600050000000     0.000000000000     0.598800000000     0          
O510     O      0.543800000000     0.000000000000     0.738200000000     0          
Zr511    Zr     0.544760000000     0.000000000000     0.608040000000     0          
C512     C      0.570700000000     0.000000000000     0.892000000000     0          
H513     H      0.546370000000     0.000000000000     0.902880000000     0          
C514     C      0.656900000000     0.000000000000     0.654000000000     0          
H515     H      0.658410000000     0.000000000000     0.594620000000     0          
C516     C      0.000000000000     0.621800000000     0.678000000000     0          
C517     C      0.000000000000     0.610100000000     0.755400000000     0          
C518     C      0.000000000000     0.577600000000     0.787600000000     0          
O519     O      0.000000000000     0.600050000000     0.598800000000     0          
O520     O      0.000000000000     0.543800000000     0.738200000000     0          
Zr521    Zr     0.000000000000     0.544760000000     0.608040000000     0          
C522     C      0.000000000000     0.570700000000     0.892000000000     0          
H523     H      0.000000000000     0.546370000000     0.902880000000     0          
C524     C      0.000000000000     0.656900000000     0.654000000000     0          
H525     H      0.000000000000     0.658410000000     0.594620000000     0          
C526     C      0.378200000000     0.378200000000     0.678000000000     0          
C527     C      0.389900000000     0.389900000000     0.755400000000     0          
C528     C      0.422400000000     0.422400000000     0.787600000000     0          
O529     O      0.399950000000     0.399950000000     0.598800000000     0          
O530     O      0.456200000000     0.456200000000     0.738200000000     0          
Zr531    Zr     0.455240000000     0.455240000000     0.608040000000     0          
C532     C      0.429300000000     0.429300000000     0.892000000000     0          
H533     H      0.453630000000     0.453630000000     0.902880000000     0          
C534     C      0.343100000000     0.343100000000     0.654000000000     0          
H535     H      0.341590000000     0.341590000000     0.594620000000     0          
C536     C      0.378200000000     0.000000000000     0.678000000000     0          
C537     C      0.389900000000     0.000000000000     0.755400000000     0          
C538     C      0.422400000000     0.000000000000     0.787600000000     0          
O539     O      0.399950000000     0.000000000000     0.598800000000     0          
O540     O      0.456200000000     0.000000000000     0.738200000000     0          
Zr541    Zr     0.455240000000     0.000000000000     0.608040000000     0          
C542     C      0.429300000000     0.000000000000     0.892000000000     0          
H543     H      0.453630000000     0.000000000000     0.902880000000     0          
C544     C      0.343100000000     0.000000000000     0.654000000000     0          
H545     H      0.341590000000     0.000000000000     0.594620000000     0          
O546     O      0.000000000000     0.399950000000     0.598800000000     0          
O547     O      0.000000000000     0.456200000000     0.738200000000     0          
Zr548    Zr     0.000000000000     0.455240000000     0.608040000000     0          
V549     V      0.000000000000     0.453800000000     0.829000000000     0          
C550     C      0.621800000000     0.621800000000     0.678000000000     0          
C551     C      0.610100000000     0.610100000000     0.755400000000     0          
C552     C      0.577600000000     0.577600000000     0.787600000000     0          
O553     O      0.600050000000     0.600050000000     0.598800000000     0          
O554     O      0.543800000000     0.543800000000     0.738200000000     0          
Zr555    Zr     0.544760000000     0.544760000000     0.608040000000     0          
C556     C      0.570700000000     0.570700000000     0.892000000000     0          
H557     H      0.546370000000     0.546370000000     0.902880000000     0          
C558     C      0.656900000000     0.656900000000     0.654000000000     0          
H559     H      0.658410000000     0.658410000000     0.594620000000     0          
C560     C      0.000000000000     0.621800000000     0.322000000000     0          
C561     C      0.000000000000     0.610100000000     0.244600000000     0          
C562     C      0.000000000000     0.577600000000     0.212400000000     0          
O563     O      0.000000000000     0.600050000000     0.401200000000     0          
O564     O      0.000000000000     0.543800000000     0.261800000000     0          
Zr565    Zr     0.000000000000     0.544760000000     0.391960000000     0          
C566     C      0.000000000000     0.570700000000     0.108000000000     0          
H567     H      0.000000000000     0.546370000000     0.097120000000     0          
C568     C      0.000000000000     0.656900000000     0.346000000000     0          
H569     H      0.000000000000     0.658410000000     0.405380000000     0          
C570     C      0.621800000000     0.000000000000     0.322000000000     0          
C571     C      0.610100000000     0.000000000000     0.244600000000     0          
C572     C      0.577600000000     0.000000000000     0.212400000000     0          
O573     O      0.600050000000     0.000000000000     0.401200000000     0          
O574     O      0.543800000000     0.000000000000     0.261800000000     0          
Zr575    Zr     0.544760000000     0.000000000000     0.391960000000     0          
C576     C      0.570700000000     0.000000000000     0.108000000000     0          
H577     H      0.546370000000     0.000000000000     0.097120000000     0          
C578     C      0.656900000000     0.000000000000     0.346000000000     0          
H579     H      0.658410000000     0.000000000000     0.405380000000     0          
C580     C      0.378200000000     0.378200000000     0.322000000000     0          
C581     C      0.389900000000     0.389900000000     0.244600000000     0          
C582     C      0.422400000000     0.422400000000     0.212400000000     0          
O583     O      0.399950000000     0.399950000000     0.401200000000     0          
O584     O      0.456200000000     0.456200000000     0.261800000000     0          
Zr585    Zr     0.455240000000     0.455240000000     0.391960000000     0          
C586     C      0.429300000000     0.429300000000     0.108000000000     0          
H587     H      0.453630000000     0.453630000000     0.097120000000     0          
C588     C      0.343100000000     0.343100000000     0.346000000000     0          
H589     H      0.341590000000     0.341590000000     0.405380000000     0          
C590     C      0.000000000000     0.378200000000     0.322000000000     0          
C591     C      0.000000000000     0.389900000000     0.244600000000     0          
C592     C      0.000000000000     0.422400000000     0.212400000000     0          
O593     O      0.000000000000     0.399950000000     0.401200000000     0          
O594     O      0.000000000000     0.456200000000     0.261800000000     0          
Zr595    Zr     0.000000000000     0.455240000000     0.391960000000     0          
C596     C      0.000000000000     0.429300000000     0.108000000000     0          
H597     H      0.000000000000     0.453630000000     0.097120000000     0          
C598     C      0.000000000000     0.343100000000     0.346000000000     0          
H599     H      0.000000000000     0.341590000000     0.405380000000     0          
C600     C      0.378200000000     0.000000000000     0.322000000000     0          
C601     C      0.389900000000     0.000000000000     0.244600000000     0          
C602     C      0.422400000000     0.000000000000     0.212400000000     0          
O603     O      0.399950000000     0.000000000000     0.401200000000     0          
O604     O      0.456200000000     0.000000000000     0.261800000000     0          
Zr605    Zr     0.455240000000     0.000000000000     0.391960000000     0          
C606     C      0.429300000000     0.000000000000     0.108000000000     0          
H607     H      0.453630000000     0.000000000000     0.097120000000     0          
C608     C      0.343100000000     0.000000000000     0.346000000000     0          
H609     H      0.341590000000     0.000000000000     0.405380000000     0          
O610     O      0.600050000000     0.600050000000     0.401200000000     0          
O611     O      0.543800000000     0.543800000000     0.261800000000     0          
Zr612    Zr     0.544760000000     0.544760000000     0.391960000000     0          
O613     O      0.528780000000     0.964990000000     0.500000000000     0          
O614     O      0.035010000000     0.563790000000     0.500000000000     0          
O615     O      0.436210000000     0.471220000000     0.500000000000     0          
O616     O      0.471220000000     0.035010000000     0.500000000000     0          
O617     O      0.964990000000     0.436210000000     0.500000000000     0          
O618     O      0.563790000000     0.528780000000     0.500000000000     0          
O619     O      0.964990000000     0.528780000000     0.500000000000     0          
O620     O      0.563790000000     0.035010000000     0.500000000000     0          
O621     O      0.471220000000     0.436210000000     0.500000000000     0          
O622     O      0.035010000000     0.471220000000     0.500000000000     0          
O623     O      0.436210000000     0.964990000000     0.500000000000     0          
O624     O      0.528780000000     0.563790000000     0.500000000000     0          
O625     O      0.482540000000     0.965070000000     0.607200000000     0          
O626     O      0.034930000000     0.517460000000     0.607200000000     0          
O627     O      0.482540000000     0.517460000000     0.607200000000     0          
O628     O      0.517460000000     0.034930000000     0.607200000000     0          
V629     V      0.484400000000     0.968800000000     0.769000000000     0          
O630     O      0.453350000000     0.906700000000     0.810000000000     0          
O631     O      0.965070000000     0.482540000000     0.607200000000     0          
O632     O      0.517460000000     0.482540000000     0.607200000000     0          
O633     O      0.965070000000     0.482540000000     0.392800000000     0          
O634     O      0.517460000000     0.034930000000     0.392800000000     0          
O635     O      0.517460000000     0.482540000000     0.392800000000     0          
O636     O      0.034930000000     0.517460000000     0.392800000000     0          
O637     O      0.482540000000     0.965070000000     0.392800000000     0          
O638     O      0.482540000000     0.517460000000     0.392800000000     0          
Zr639    Zr     0.463900000000     0.927800000000     0.500000000000     0          
Zr640    Zr     0.072200000000     0.536100000000     0.500000000000     0          
Zr641    Zr     0.463900000000     0.536100000000     0.500000000000     0          
Zr642    Zr     0.536100000000     0.072200000000     0.500000000000     0          
Zr643    Zr     0.927800000000     0.463900000000     0.500000000000     0          
Zr644    Zr     0.536100000000     0.463900000000     0.500000000000     0          
O645     O      0.500000000000     0.000000000000     0.872400000000     0          
O646     O      0.000000000000     0.500000000000     0.872400000000     0          
O647     O      0.500000000000     0.500000000000     0.127600000000     0          


