data_CILCOS

_audit_creation_method RASPA-1.0
_audit_creation_date 2020-11-2
_audit_author_name 'Rocio Bueno-Perez'

_cell_length_a    23.3559
_cell_length_b    23.3559
_cell_length_c    26.7429
_cell_angle_alpha 90
_cell_angle_beta  90
_cell_angle_gamma 90
_cell_volume      14588.2

_symmetry_cell_setting          tetragonal
_symmetry_space_group_name_Hall 'P 1'
_symmetry_space_group_name_H-M  'P 1'
_symmetry_Int_Tables_number     1

_symmetry_equiv_pos_as_xyz 'x,y,z'

loop_
_atom_site_label
_atom_site_type_symbol
_atom_site_fract_x
_atom_site_fract_y
_atom_site_fract_z
_atom_site_charge
O4       O      0.153290000000     0.443600000000     0.549590000000     0          
O5       O      0.086880000000     0.395360000000     0.594290000000     0          
C1       C      0.137800000000     0.410900000000     0.584710000000     0          
C2       C      0.184600000000     0.389600000000     0.618350000000     0          
C3       C      0.237800000000     0.416000000000     0.616600000000     0          
H1       H      0.244500000000     0.446700000000     0.594000000000     0          
C4       C      0.281200000000     0.397200000000     0.647930000000     0          
H2       H      0.318000000000     0.414600000000     0.647200000000     0          
C5       C      0.269300000000     0.352100000000     0.680520000000     0          
C6       C      0.218300000000     0.326600000000     0.682650000000     0          
H3       H      0.212000000000     0.296300000000     0.705700000000     0          
C7       C      0.173900000000     0.344400000000     0.651100000000     0          
H4       H      0.137500000000     0.326200000000     0.652000000000     0          
Zr1      Zr     0.104550000000     0.500000000000     0.500000000000     0          
Zr2      Zr     0.000000000000     0.575330000000     0.433670000000     0          
O8       O      0.000000000000     0.551500000000     0.352500000000     0          
O1       O      0.042400000000     0.567000000000     0.500000000000     0          
O9?      O      0.062900000000     0.589200000000     0.500000000000     0          
O2       O      0.051600000000     0.500000000000     0.434700000000     0          
S1       S      0.326260000000     0.326260000000     0.718330000000     0          
O6       O      0.302200000000     0.302200000000     0.762950000000     0          
O7       O      0.369610000000     0.369610000000     0.722810000000     0          
C8       C      0.000000000000     0.500000000000     0.331900000000     0          
O4       O      0.556400000000     0.153290000000     0.549590000000     0          
O5       O      0.604640000000     0.086880000000     0.594290000000     0          
C1       C      0.589100000000     0.137800000000     0.584710000000     0          
C2       C      0.610400000000     0.184600000000     0.618350000000     0          
C3       C      0.584000000000     0.237800000000     0.616600000000     0          
H1       H      0.553300000000     0.244500000000     0.594000000000     0          
C4       C      0.602800000000     0.281200000000     0.647930000000     0          
H2       H      0.585400000000     0.318000000000     0.647200000000     0          
C5       C      0.647900000000     0.269300000000     0.680520000000     0          
C6       C      0.673400000000     0.218300000000     0.682650000000     0          
H3       H      0.703700000000     0.212000000000     0.705700000000     0          
C7       C      0.655600000000     0.173900000000     0.651100000000     0          
H4       H      0.673800000000     0.137500000000     0.652000000000     0          
Zr1      Zr     0.500000000000     0.104550000000     0.500000000000     0          
Zr2      Zr     0.424670000000     0.000000000000     0.433670000000     0          
O8       O      0.448500000000     0.000000000000     0.352500000000     0          
O1       O      0.433000000000     0.042400000000     0.500000000000     0          
O9?      O      0.410800000000     0.062900000000     0.500000000000     0          
O2       O      0.500000000000     0.051600000000     0.434700000000     0          
S1       S      0.673740000000     0.326260000000     0.718330000000     0          
O6       O      0.697800000000     0.302200000000     0.762950000000     0          
O7       O      0.630390000000     0.369610000000     0.722810000000     0          
C8       C      0.500000000000     0.000000000000     0.331900000000     0          
O4       O      0.846710000000     0.556400000000     0.549590000000     0          
O5       O      0.913120000000     0.604640000000     0.594290000000     0          
C1       C      0.862200000000     0.589100000000     0.584710000000     0          
C2       C      0.815400000000     0.610400000000     0.618350000000     0          
C3       C      0.762200000000     0.584000000000     0.616600000000     0          
H1       H      0.755500000000     0.553300000000     0.594000000000     0          
C4       C      0.718800000000     0.602800000000     0.647930000000     0          
H2       H      0.682000000000     0.585400000000     0.647200000000     0          
C5       C      0.730700000000     0.647900000000     0.680520000000     0          
C6       C      0.781700000000     0.673400000000     0.682650000000     0          
H3       H      0.788000000000     0.703700000000     0.705700000000     0          
C7       C      0.826100000000     0.655600000000     0.651100000000     0          
H4       H      0.862500000000     0.673800000000     0.652000000000     0          
Zr1      Zr     0.895450000000     0.500000000000     0.500000000000     0          
Zr2      Zr     0.000000000000     0.424670000000     0.433670000000     0          
O8       O      0.000000000000     0.448500000000     0.352500000000     0          
O1       O      0.957600000000     0.433000000000     0.500000000000     0          
O9?      O      0.937100000000     0.410800000000     0.500000000000     0          
O2       O      0.948400000000     0.500000000000     0.434700000000     0          
S1       S      0.673740000000     0.673740000000     0.718330000000     0          
O6       O      0.697800000000     0.697800000000     0.762950000000     0          
O7       O      0.630390000000     0.630390000000     0.722810000000     0          
O4       O      0.443600000000     0.846710000000     0.549590000000     0          
O5       O      0.395360000000     0.913120000000     0.594290000000     0          
C1       C      0.410900000000     0.862200000000     0.584710000000     0          
C2       C      0.389600000000     0.815400000000     0.618350000000     0          
C3       C      0.416000000000     0.762200000000     0.616600000000     0          
H1       H      0.446700000000     0.755500000000     0.594000000000     0          
C4       C      0.397200000000     0.718800000000     0.647930000000     0          
H2       H      0.414600000000     0.682000000000     0.647200000000     0          
C5       C      0.352100000000     0.730700000000     0.680520000000     0          
C6       C      0.326600000000     0.781700000000     0.682650000000     0          
H3       H      0.296300000000     0.788000000000     0.705700000000     0          
C7       C      0.344400000000     0.826100000000     0.651100000000     0          
H4       H      0.326200000000     0.862500000000     0.652000000000     0          
Zr1      Zr     0.500000000000     0.895450000000     0.500000000000     0          
Zr2      Zr     0.575330000000     0.000000000000     0.433670000000     0          
O8       O      0.551500000000     0.000000000000     0.352500000000     0          
O1       O      0.567000000000     0.957600000000     0.500000000000     0          
O9?      O      0.589200000000     0.937100000000     0.500000000000     0          
O2       O      0.500000000000     0.948400000000     0.434700000000     0          
S1       S      0.326260000000     0.673740000000     0.718330000000     0          
O6       O      0.302200000000     0.697800000000     0.762950000000     0          
O7       O      0.369610000000     0.630390000000     0.722810000000     0          
O4       O      0.153290000000     0.556400000000     0.450410000000     0          
O5       O      0.086880000000     0.604640000000     0.405710000000     0          
C1       C      0.137800000000     0.589100000000     0.415290000000     0          
C2       C      0.184600000000     0.610400000000     0.381650000000     0          
C3       C      0.237800000000     0.584000000000     0.383400000000     0          
H1       H      0.244500000000     0.553300000000     0.406000000000     0          
C4       C      0.281200000000     0.602800000000     0.352070000000     0          
H2       H      0.318000000000     0.585400000000     0.352800000000     0          
C5       C      0.269300000000     0.647900000000     0.319480000000     0          
C6       C      0.218300000000     0.673400000000     0.317350000000     0          
H3       H      0.212000000000     0.703700000000     0.294300000000     0          
C7       C      0.173900000000     0.655600000000     0.348900000000     0          
H4       H      0.137500000000     0.673800000000     0.348000000000     0          
Zr2      Zr     0.000000000000     0.424670000000     0.566330000000     0          
O8       O      0.000000000000     0.448500000000     0.647500000000     0          
O1       O      0.042400000000     0.433000000000     0.500000000000     0          
O9?      O      0.062900000000     0.410800000000     0.500000000000     0          
O2       O      0.051600000000     0.500000000000     0.565300000000     0          
S1       S      0.326260000000     0.673740000000     0.281670000000     0          
O6       O      0.302200000000     0.697800000000     0.237050000000     0          
O7       O      0.369610000000     0.630390000000     0.277190000000     0          
C8       C      0.000000000000     0.500000000000     0.668100000000     0          
O4       O      0.443600000000     0.153290000000     0.450410000000     0          
O5       O      0.395360000000     0.086880000000     0.405710000000     0          
C1       C      0.410900000000     0.137800000000     0.415290000000     0          
C2       C      0.389600000000     0.184600000000     0.381650000000     0          
C3       C      0.416000000000     0.237800000000     0.383400000000     0          
H1       H      0.446700000000     0.244500000000     0.406000000000     0          
C4       C      0.397200000000     0.281200000000     0.352070000000     0          
H2       H      0.414600000000     0.318000000000     0.352800000000     0          
C5       C      0.352100000000     0.269300000000     0.319480000000     0          
C6       C      0.326600000000     0.218300000000     0.317350000000     0          
H3       H      0.296300000000     0.212000000000     0.294300000000     0          
C7       C      0.344400000000     0.173900000000     0.348900000000     0          
H4       H      0.326200000000     0.137500000000     0.348000000000     0          
Zr2      Zr     0.575330000000     0.000000000000     0.566330000000     0          
O8       O      0.551500000000     0.000000000000     0.647500000000     0          
O1       O      0.567000000000     0.042400000000     0.500000000000     0          
O9?      O      0.589200000000     0.062900000000     0.500000000000     0          
O2       O      0.500000000000     0.051600000000     0.565300000000     0          
S1       S      0.326260000000     0.326260000000     0.281670000000     0          
O6       O      0.302200000000     0.302200000000     0.237050000000     0          
O7       O      0.369610000000     0.369610000000     0.277190000000     0          
C8       C      0.500000000000     0.000000000000     0.668100000000     0          
O4       O      0.846710000000     0.443600000000     0.450410000000     0          
O5       O      0.913120000000     0.395360000000     0.405710000000     0          
C1       C      0.862200000000     0.410900000000     0.415290000000     0          
C2       C      0.815400000000     0.389600000000     0.381650000000     0          
C3       C      0.762200000000     0.416000000000     0.383400000000     0          
H1       H      0.755500000000     0.446700000000     0.406000000000     0          
C4       C      0.718800000000     0.397200000000     0.352070000000     0          
H2       H      0.682000000000     0.414600000000     0.352800000000     0          
C5       C      0.730700000000     0.352100000000     0.319480000000     0          
C6       C      0.781700000000     0.326600000000     0.317350000000     0          
H3       H      0.788000000000     0.296300000000     0.294300000000     0          
C7       C      0.826100000000     0.344400000000     0.348900000000     0          
H4       H      0.862500000000     0.326200000000     0.348000000000     0          
Zr2      Zr     0.000000000000     0.575330000000     0.566330000000     0          
O8       O      0.000000000000     0.551500000000     0.647500000000     0          
O1       O      0.957600000000     0.567000000000     0.500000000000     0          
O9?      O      0.937100000000     0.589200000000     0.500000000000     0          
O2       O      0.948400000000     0.500000000000     0.565300000000     0          
S1       S      0.673740000000     0.326260000000     0.281670000000     0          
O6       O      0.697800000000     0.302200000000     0.237050000000     0          
O7       O      0.630390000000     0.369610000000     0.277190000000     0          
O4       O      0.556400000000     0.846710000000     0.450410000000     0          
O5       O      0.604640000000     0.913120000000     0.405710000000     0          
C1       C      0.589100000000     0.862200000000     0.415290000000     0          
C2       C      0.610400000000     0.815400000000     0.381650000000     0          
C3       C      0.584000000000     0.762200000000     0.383400000000     0          
H1       H      0.553300000000     0.755500000000     0.406000000000     0          
C4       C      0.602800000000     0.718800000000     0.352070000000     0          
H2       H      0.585400000000     0.682000000000     0.352800000000     0          
C5       C      0.647900000000     0.730700000000     0.319480000000     0          
C6       C      0.673400000000     0.781700000000     0.317350000000     0          
H3       H      0.703700000000     0.788000000000     0.294300000000     0          
C7       C      0.655600000000     0.826100000000     0.348900000000     0          
H4       H      0.673800000000     0.862500000000     0.348000000000     0          
Zr2      Zr     0.424670000000     0.000000000000     0.566330000000     0          
O8       O      0.448500000000     0.000000000000     0.647500000000     0          
O1       O      0.433000000000     0.957600000000     0.500000000000     0          
O9?      O      0.410800000000     0.937100000000     0.500000000000     0          
O2       O      0.500000000000     0.948400000000     0.565300000000     0          
S1       S      0.673740000000     0.673740000000     0.281670000000     0          
O6       O      0.697800000000     0.697800000000     0.237050000000     0          
O7       O      0.630390000000     0.630390000000     0.277190000000     0          
O4       O      0.846710000000     0.556400000000     0.450410000000     0          
O5       O      0.913120000000     0.604640000000     0.405710000000     0          
C1       C      0.862200000000     0.589100000000     0.415290000000     0          
C2       C      0.815400000000     0.610400000000     0.381650000000     0          
C3       C      0.762200000000     0.584000000000     0.383400000000     0          
H1       H      0.755500000000     0.553300000000     0.406000000000     0          
C4       C      0.718800000000     0.602800000000     0.352070000000     0          
H2       H      0.682000000000     0.585400000000     0.352800000000     0          
C5       C      0.730700000000     0.647900000000     0.319480000000     0          
C6       C      0.781700000000     0.673400000000     0.317350000000     0          
H3       H      0.788000000000     0.703700000000     0.294300000000     0          
C7       C      0.826100000000     0.655600000000     0.348900000000     0          
H4       H      0.862500000000     0.673800000000     0.348000000000     0          
O4       O      0.443600000000     0.846710000000     0.450410000000     0          
O5       O      0.395360000000     0.913120000000     0.405710000000     0          
C1       C      0.410900000000     0.862200000000     0.415290000000     0          
C2       C      0.389600000000     0.815400000000     0.381650000000     0          
C3       C      0.416000000000     0.762200000000     0.383400000000     0          
H1       H      0.446700000000     0.755500000000     0.406000000000     0          
C4       C      0.397200000000     0.718800000000     0.352070000000     0          
H2       H      0.414600000000     0.682000000000     0.352800000000     0          
C5       C      0.352100000000     0.730700000000     0.319480000000     0          
C6       C      0.326600000000     0.781700000000     0.317350000000     0          
H3       H      0.296300000000     0.788000000000     0.294300000000     0          
C7       C      0.344400000000     0.826100000000     0.348900000000     0          
H4       H      0.326200000000     0.862500000000     0.348000000000     0          
O4       O      0.153290000000     0.443600000000     0.450410000000     0          
O5       O      0.086880000000     0.395360000000     0.405710000000     0          
C1       C      0.137800000000     0.410900000000     0.415290000000     0          
C2       C      0.184600000000     0.389600000000     0.381650000000     0          
C3       C      0.237800000000     0.416000000000     0.383400000000     0          
H1       H      0.244500000000     0.446700000000     0.406000000000     0          
C4       C      0.281200000000     0.397200000000     0.352070000000     0          
H2       H      0.318000000000     0.414600000000     0.352800000000     0          
C5       C      0.269300000000     0.352100000000     0.319480000000     0          
C6       C      0.218300000000     0.326600000000     0.317350000000     0          
H3       H      0.212000000000     0.296300000000     0.294300000000     0          
C7       C      0.173900000000     0.344400000000     0.348900000000     0          
H4       H      0.137500000000     0.326200000000     0.348000000000     0          
O4       O      0.556400000000     0.153290000000     0.450410000000     0          
O5       O      0.604640000000     0.086880000000     0.405710000000     0          
C1       C      0.589100000000     0.137800000000     0.415290000000     0          
C2       C      0.610400000000     0.184600000000     0.381650000000     0          
C3       C      0.584000000000     0.237800000000     0.383400000000     0          
H1       H      0.553300000000     0.244500000000     0.406000000000     0          
C4       C      0.602800000000     0.281200000000     0.352070000000     0          
H2       H      0.585400000000     0.318000000000     0.352800000000     0          
C5       C      0.647900000000     0.269300000000     0.319480000000     0          
C6       C      0.673400000000     0.218300000000     0.317350000000     0          
H3       H      0.703700000000     0.212000000000     0.294300000000     0          
C7       C      0.655600000000     0.173900000000     0.348900000000     0          
H4       H      0.673800000000     0.137500000000     0.348000000000     0          
O4       O      0.846710000000     0.443600000000     0.549590000000     0          
O5       O      0.913120000000     0.395360000000     0.594290000000     0          
C1       C      0.862200000000     0.410900000000     0.584710000000     0          
C2       C      0.815400000000     0.389600000000     0.618350000000     0          
C3       C      0.762200000000     0.416000000000     0.616600000000     0          
H1       H      0.755500000000     0.446700000000     0.594000000000     0          
C4       C      0.718800000000     0.397200000000     0.647930000000     0          
H2       H      0.682000000000     0.414600000000     0.647200000000     0          
C5       C      0.730700000000     0.352100000000     0.680520000000     0          
C6       C      0.781700000000     0.326600000000     0.682650000000     0          
H3       H      0.788000000000     0.296300000000     0.705700000000     0          
C7       C      0.826100000000     0.344400000000     0.651100000000     0          
H4       H      0.862500000000     0.326200000000     0.652000000000     0          
O4       O      0.556400000000     0.846710000000     0.549590000000     0          
O5       O      0.604640000000     0.913120000000     0.594290000000     0          
C1       C      0.589100000000     0.862200000000     0.584710000000     0          
C2       C      0.610400000000     0.815400000000     0.618350000000     0          
C3       C      0.584000000000     0.762200000000     0.616600000000     0          
H1       H      0.553300000000     0.755500000000     0.594000000000     0          
C4       C      0.602800000000     0.718800000000     0.647930000000     0          
H2       H      0.585400000000     0.682000000000     0.647200000000     0          
C5       C      0.647900000000     0.730700000000     0.680520000000     0          
C6       C      0.673400000000     0.781700000000     0.682650000000     0          
H3       H      0.703700000000     0.788000000000     0.705700000000     0          
C7       C      0.655600000000     0.826100000000     0.651100000000     0          
H4       H      0.673800000000     0.862500000000     0.652000000000     0          
O4       O      0.153290000000     0.556400000000     0.549590000000     0          
O5       O      0.086880000000     0.604640000000     0.594290000000     0          
C1       C      0.137800000000     0.589100000000     0.584710000000     0          
C2       C      0.184600000000     0.610400000000     0.618350000000     0          
C3       C      0.237800000000     0.584000000000     0.616600000000     0          
H1       H      0.244500000000     0.553300000000     0.594000000000     0          
C4       C      0.281200000000     0.602800000000     0.647930000000     0          
H2       H      0.318000000000     0.585400000000     0.647200000000     0          
C5       C      0.269300000000     0.647900000000     0.680520000000     0          
C6       C      0.218300000000     0.673400000000     0.682650000000     0          
H3       H      0.212000000000     0.703700000000     0.705700000000     0          
C7       C      0.173900000000     0.655600000000     0.651100000000     0          
H4       H      0.137500000000     0.673800000000     0.652000000000     0          
O4       O      0.443600000000     0.153290000000     0.549590000000     0          
O5       O      0.395360000000     0.086880000000     0.594290000000     0          
C1       C      0.410900000000     0.137800000000     0.584710000000     0          
C2       C      0.389600000000     0.184600000000     0.618350000000     0          
C3       C      0.416000000000     0.237800000000     0.616600000000     0          
H1       H      0.446700000000     0.244500000000     0.594000000000     0          
C4       C      0.397200000000     0.281200000000     0.647930000000     0          
H2       H      0.414600000000     0.318000000000     0.647200000000     0          
C5       C      0.352100000000     0.269300000000     0.680520000000     0          
C6       C      0.326600000000     0.218300000000     0.682650000000     0          
H3       H      0.296300000000     0.212000000000     0.705700000000     0          
C7       C      0.344400000000     0.173900000000     0.651100000000     0          
H4       H      0.326200000000     0.137500000000     0.652000000000     0          
O4       O      0.653290000000     0.943600000000     0.049590000000     0          
O5       O      0.586880000000     0.895360000000     0.094290000000     0          
C1       C      0.637800000000     0.910900000000     0.084710000000     0          
C2       C      0.684600000000     0.889600000000     0.118350000000     0          
C3       C      0.737800000000     0.916000000000     0.116600000000     0          
H1       H      0.744500000000     0.946700000000     0.094000000000     0          
C4       C      0.781200000000     0.897200000000     0.147930000000     0          
H2       H      0.818000000000     0.914600000000     0.147200000000     0          
C5       C      0.769300000000     0.852100000000     0.180520000000     0          
C6       C      0.718300000000     0.826600000000     0.182650000000     0          
H3       H      0.712000000000     0.796300000000     0.205700000000     0          
C7       C      0.673900000000     0.844400000000     0.151100000000     0          
H4       H      0.637500000000     0.826200000000     0.152000000000     0          
Zr1      Zr     0.604550000000     0.000000000000     0.000000000000     0          
Zr2      Zr     0.500000000000     0.075330000000     0.933670000000     0          
O8       O      0.500000000000     0.051500000000     0.852500000000     0          
O1       O      0.542400000000     0.067000000000     0.000000000000     0          
O9?      O      0.562900000000     0.089200000000     0.000000000000     0          
O2       O      0.551600000000     0.000000000000     0.934700000000     0          
S1       S      0.826260000000     0.826260000000     0.218330000000     0          
O6       O      0.802200000000     0.802200000000     0.262950000000     0          
O7       O      0.869610000000     0.869610000000     0.222810000000     0          
C8       C      0.500000000000     0.000000000000     0.831900000000     0          
O4       O      0.056400000000     0.653290000000     0.049590000000     0          
O5       O      0.104640000000     0.586880000000     0.094290000000     0          
C1       C      0.089100000000     0.637800000000     0.084710000000     0          
C2       C      0.110400000000     0.684600000000     0.118350000000     0          
C3       C      0.084000000000     0.737800000000     0.116600000000     0          
H1       H      0.053300000000     0.744500000000     0.094000000000     0          
C4       C      0.102800000000     0.781200000000     0.147930000000     0          
H2       H      0.085400000000     0.818000000000     0.147200000000     0          
C5       C      0.147900000000     0.769300000000     0.180520000000     0          
C6       C      0.173400000000     0.718300000000     0.182650000000     0          
H3       H      0.203700000000     0.712000000000     0.205700000000     0          
C7       C      0.155600000000     0.673900000000     0.151100000000     0          
H4       H      0.173800000000     0.637500000000     0.152000000000     0          
Zr1      Zr     0.000000000000     0.604550000000     0.000000000000     0          
Zr2      Zr     0.924670000000     0.500000000000     0.933670000000     0          
O8       O      0.948500000000     0.500000000000     0.852500000000     0          
O1       O      0.933000000000     0.542400000000     0.000000000000     0          
O9?      O      0.910800000000     0.562900000000     0.000000000000     0          
O2       O      0.000000000000     0.551600000000     0.934700000000     0          
S1       S      0.173740000000     0.826260000000     0.218330000000     0          
O6       O      0.197800000000     0.802200000000     0.262950000000     0          
O7       O      0.130390000000     0.869610000000     0.222810000000     0          
C8       C      0.000000000000     0.500000000000     0.831900000000     0          
O4       O      0.346710000000     0.056400000000     0.049590000000     0          
O5       O      0.413120000000     0.104640000000     0.094290000000     0          
C1       C      0.362200000000     0.089100000000     0.084710000000     0          
C2       C      0.315400000000     0.110400000000     0.118350000000     0          
C3       C      0.262200000000     0.084000000000     0.116600000000     0          
H1       H      0.255500000000     0.053300000000     0.094000000000     0          
C4       C      0.218800000000     0.102800000000     0.147930000000     0          
H2       H      0.182000000000     0.085400000000     0.147200000000     0          
C5       C      0.230700000000     0.147900000000     0.180520000000     0          
C6       C      0.281700000000     0.173400000000     0.182650000000     0          
H3       H      0.288000000000     0.203700000000     0.205700000000     0          
C7       C      0.326100000000     0.155600000000     0.151100000000     0          
H4       H      0.362500000000     0.173800000000     0.152000000000     0          
Zr1      Zr     0.395450000000     0.000000000000     0.000000000000     0          
Zr2      Zr     0.500000000000     0.924670000000     0.933670000000     0          
O8       O      0.500000000000     0.948500000000     0.852500000000     0          
O1       O      0.457600000000     0.933000000000     0.000000000000     0          
O9?      O      0.437100000000     0.910800000000     0.000000000000     0          
O2       O      0.448400000000     0.000000000000     0.934700000000     0          
S1       S      0.173740000000     0.173740000000     0.218330000000     0          
O6       O      0.197800000000     0.197800000000     0.262950000000     0          
O7       O      0.130390000000     0.130390000000     0.222810000000     0          
O4       O      0.943600000000     0.346710000000     0.049590000000     0          
O5       O      0.895360000000     0.413120000000     0.094290000000     0          
C1       C      0.910900000000     0.362200000000     0.084710000000     0          
C2       C      0.889600000000     0.315400000000     0.118350000000     0          
C3       C      0.916000000000     0.262200000000     0.116600000000     0          
H1       H      0.946700000000     0.255500000000     0.094000000000     0          
C4       C      0.897200000000     0.218800000000     0.147930000000     0          
H2       H      0.914600000000     0.182000000000     0.147200000000     0          
C5       C      0.852100000000     0.230700000000     0.180520000000     0          
C6       C      0.826600000000     0.281700000000     0.182650000000     0          
H3       H      0.796300000000     0.288000000000     0.205700000000     0          
C7       C      0.844400000000     0.326100000000     0.151100000000     0          
H4       H      0.826200000000     0.362500000000     0.152000000000     0          
Zr1      Zr     0.000000000000     0.395450000000     0.000000000000     0          
Zr2      Zr     0.075330000000     0.500000000000     0.933670000000     0          
O8       O      0.051500000000     0.500000000000     0.852500000000     0          
O1       O      0.067000000000     0.457600000000     0.000000000000     0          
O9?      O      0.089200000000     0.437100000000     0.000000000000     0          
O2       O      0.000000000000     0.448400000000     0.934700000000     0          
S1       S      0.826260000000     0.173740000000     0.218330000000     0          
O6       O      0.802200000000     0.197800000000     0.262950000000     0          
O7       O      0.869610000000     0.130390000000     0.222810000000     0          
O4       O      0.653290000000     0.056400000000     0.950410000000     0          
O5       O      0.586880000000     0.104640000000     0.905710000000     0          
C1       C      0.637800000000     0.089100000000     0.915290000000     0          
C2       C      0.684600000000     0.110400000000     0.881650000000     0          
C3       C      0.737800000000     0.084000000000     0.883400000000     0          
H1       H      0.744500000000     0.053300000000     0.906000000000     0          
C4       C      0.781200000000     0.102800000000     0.852070000000     0          
H2       H      0.818000000000     0.085400000000     0.852800000000     0          
C5       C      0.769300000000     0.147900000000     0.819480000000     0          
C6       C      0.718300000000     0.173400000000     0.817350000000     0          
H3       H      0.712000000000     0.203700000000     0.794300000000     0          
C7       C      0.673900000000     0.155600000000     0.848900000000     0          
H4       H      0.637500000000     0.173800000000     0.848000000000     0          
Zr2      Zr     0.500000000000     0.924670000000     0.066330000000     0          
O8       O      0.500000000000     0.948500000000     0.147500000000     0          
O1       O      0.542400000000     0.933000000000     0.000000000000     0          
O9?      O      0.562900000000     0.910800000000     0.000000000000     0          
O2       O      0.551600000000     0.000000000000     0.065300000000     0          
S1       S      0.826260000000     0.173740000000     0.781670000000     0          
O6       O      0.802200000000     0.197800000000     0.737050000000     0          
O7       O      0.869610000000     0.130390000000     0.777190000000     0          
C8       C      0.500000000000     0.000000000000     0.168100000000     0          
O4       O      0.943600000000     0.653290000000     0.950410000000     0          
O5       O      0.895360000000     0.586880000000     0.905710000000     0          
C1       C      0.910900000000     0.637800000000     0.915290000000     0          
C2       C      0.889600000000     0.684600000000     0.881650000000     0          
C3       C      0.916000000000     0.737800000000     0.883400000000     0          
H1       H      0.946700000000     0.744500000000     0.906000000000     0          
C4       C      0.897200000000     0.781200000000     0.852070000000     0          
H2       H      0.914600000000     0.818000000000     0.852800000000     0          
C5       C      0.852100000000     0.769300000000     0.819480000000     0          
C6       C      0.826600000000     0.718300000000     0.817350000000     0          
H3       H      0.796300000000     0.712000000000     0.794300000000     0          
C7       C      0.844400000000     0.673900000000     0.848900000000     0          
H4       H      0.826200000000     0.637500000000     0.848000000000     0          
Zr2      Zr     0.075330000000     0.500000000000     0.066330000000     0          
O8       O      0.051500000000     0.500000000000     0.147500000000     0          
O1       O      0.067000000000     0.542400000000     0.000000000000     0          
O9?      O      0.089200000000     0.562900000000     0.000000000000     0          
O2       O      0.000000000000     0.551600000000     0.065300000000     0          
S1       S      0.826260000000     0.826260000000     0.781670000000     0          
O6       O      0.802200000000     0.802200000000     0.737050000000     0          
O7       O      0.869610000000     0.869610000000     0.777190000000     0          
C8       C      0.000000000000     0.500000000000     0.168100000000     0          
O4       O      0.346710000000     0.943600000000     0.950410000000     0          
O5       O      0.413120000000     0.895360000000     0.905710000000     0          
C1       C      0.362200000000     0.910900000000     0.915290000000     0          
C2       C      0.315400000000     0.889600000000     0.881650000000     0          
C3       C      0.262200000000     0.916000000000     0.883400000000     0          
H1       H      0.255500000000     0.946700000000     0.906000000000     0          
C4       C      0.218800000000     0.897200000000     0.852070000000     0          
H2       H      0.182000000000     0.914600000000     0.852800000000     0          
C5       C      0.230700000000     0.852100000000     0.819480000000     0          
C6       C      0.281700000000     0.826600000000     0.817350000000     0          
H3       H      0.288000000000     0.796300000000     0.794300000000     0          
C7       C      0.326100000000     0.844400000000     0.848900000000     0          
H4       H      0.362500000000     0.826200000000     0.848000000000     0          
Zr2      Zr     0.500000000000     0.075330000000     0.066330000000     0          
O8       O      0.500000000000     0.051500000000     0.147500000000     0          
O1       O      0.457600000000     0.067000000000     0.000000000000     0          
O9?      O      0.437100000000     0.089200000000     0.000000000000     0          
O2       O      0.448400000000     0.000000000000     0.065300000000     0          
S1       S      0.173740000000     0.826260000000     0.781670000000     0          
O6       O      0.197800000000     0.802200000000     0.737050000000     0          
O7       O      0.130390000000     0.869610000000     0.777190000000     0          
O4       O      0.056400000000     0.346710000000     0.950410000000     0          
O5       O      0.104640000000     0.413120000000     0.905710000000     0          
C1       C      0.089100000000     0.362200000000     0.915290000000     0          
C2       C      0.110400000000     0.315400000000     0.881650000000     0          
C3       C      0.084000000000     0.262200000000     0.883400000000     0          
H1       H      0.053300000000     0.255500000000     0.906000000000     0          
C4       C      0.102800000000     0.218800000000     0.852070000000     0          
H2       H      0.085400000000     0.182000000000     0.852800000000     0          
C5       C      0.147900000000     0.230700000000     0.819480000000     0          
C6       C      0.173400000000     0.281700000000     0.817350000000     0          
H3       H      0.203700000000     0.288000000000     0.794300000000     0          
C7       C      0.155600000000     0.326100000000     0.848900000000     0          
H4       H      0.173800000000     0.362500000000     0.848000000000     0          
Zr2      Zr     0.924670000000     0.500000000000     0.066330000000     0          
O8       O      0.948500000000     0.500000000000     0.147500000000     0          
O1       O      0.933000000000     0.457600000000     0.000000000000     0          
O9?      O      0.910800000000     0.437100000000     0.000000000000     0          
O2       O      0.000000000000     0.448400000000     0.065300000000     0          
S1       S      0.173740000000     0.173740000000     0.781670000000     0          
O6       O      0.197800000000     0.197800000000     0.737050000000     0          
O7       O      0.130390000000     0.130390000000     0.777190000000     0          
O4       O      0.346710000000     0.056400000000     0.950410000000     0          
O5       O      0.413120000000     0.104640000000     0.905710000000     0          
C1       C      0.362200000000     0.089100000000     0.915290000000     0          
C2       C      0.315400000000     0.110400000000     0.881650000000     0          
C3       C      0.262200000000     0.084000000000     0.883400000000     0          
H1       H      0.255500000000     0.053300000000     0.906000000000     0          
C4       C      0.218800000000     0.102800000000     0.852070000000     0          
H2       H      0.182000000000     0.085400000000     0.852800000000     0          
C5       C      0.230700000000     0.147900000000     0.819480000000     0          
C6       C      0.281700000000     0.173400000000     0.817350000000     0          
H3       H      0.288000000000     0.203700000000     0.794300000000     0          
C7       C      0.326100000000     0.155600000000     0.848900000000     0          
H4       H      0.362500000000     0.173800000000     0.848000000000     0          
O4       O      0.943600000000     0.346710000000     0.950410000000     0          
O5       O      0.895360000000     0.413120000000     0.905710000000     0          
C1       C      0.910900000000     0.362200000000     0.915290000000     0          
C2       C      0.889600000000     0.315400000000     0.881650000000     0          
C3       C      0.916000000000     0.262200000000     0.883400000000     0          
H1       H      0.946700000000     0.255500000000     0.906000000000     0          
C4       C      0.897200000000     0.218800000000     0.852070000000     0          
H2       H      0.914600000000     0.182000000000     0.852800000000     0          
C5       C      0.852100000000     0.230700000000     0.819480000000     0          
C6       C      0.826600000000     0.281700000000     0.817350000000     0          
H3       H      0.796300000000     0.288000000000     0.794300000000     0          
C7       C      0.844400000000     0.326100000000     0.848900000000     0          
H4       H      0.826200000000     0.362500000000     0.848000000000     0          
O4       O      0.653290000000     0.943600000000     0.950410000000     0          
O5       O      0.586880000000     0.895360000000     0.905710000000     0          
C1       C      0.637800000000     0.910900000000     0.915290000000     0          
C2       C      0.684600000000     0.889600000000     0.881650000000     0          
C3       C      0.737800000000     0.916000000000     0.883400000000     0          
H1       H      0.744500000000     0.946700000000     0.906000000000     0          
C4       C      0.781200000000     0.897200000000     0.852070000000     0          
H2       H      0.818000000000     0.914600000000     0.852800000000     0          
C5       C      0.769300000000     0.852100000000     0.819480000000     0          
C6       C      0.718300000000     0.826600000000     0.817350000000     0          
H3       H      0.712000000000     0.796300000000     0.794300000000     0          
C7       C      0.673900000000     0.844400000000     0.848900000000     0          
H4       H      0.637500000000     0.826200000000     0.848000000000     0          
O4       O      0.056400000000     0.653290000000     0.950410000000     0          
O5       O      0.104640000000     0.586880000000     0.905710000000     0          
C1       C      0.089100000000     0.637800000000     0.915290000000     0          
C2       C      0.110400000000     0.684600000000     0.881650000000     0          
C3       C      0.084000000000     0.737800000000     0.883400000000     0          
H1       H      0.053300000000     0.744500000000     0.906000000000     0          
C4       C      0.102800000000     0.781200000000     0.852070000000     0          
H2       H      0.085400000000     0.818000000000     0.852800000000     0          
C5       C      0.147900000000     0.769300000000     0.819480000000     0          
C6       C      0.173400000000     0.718300000000     0.817350000000     0          
H3       H      0.203700000000     0.712000000000     0.794300000000     0          
C7       C      0.155600000000     0.673900000000     0.848900000000     0          
H4       H      0.173800000000     0.637500000000     0.848000000000     0          
O4       O      0.346710000000     0.943600000000     0.049590000000     0          
O5       O      0.413120000000     0.895360000000     0.094290000000     0          
C1       C      0.362200000000     0.910900000000     0.084710000000     0          
C2       C      0.315400000000     0.889600000000     0.118350000000     0          
C3       C      0.262200000000     0.916000000000     0.116600000000     0          
H1       H      0.255500000000     0.946700000000     0.094000000000     0          
C4       C      0.218800000000     0.897200000000     0.147930000000     0          
H2       H      0.182000000000     0.914600000000     0.147200000000     0          
C5       C      0.230700000000     0.852100000000     0.180520000000     0          
C6       C      0.281700000000     0.826600000000     0.182650000000     0          
H3       H      0.288000000000     0.796300000000     0.205700000000     0          
C7       C      0.326100000000     0.844400000000     0.151100000000     0          
H4       H      0.362500000000     0.826200000000     0.152000000000     0          
O4       O      0.056400000000     0.346710000000     0.049590000000     0          
O5       O      0.104640000000     0.413120000000     0.094290000000     0          
C1       C      0.089100000000     0.362200000000     0.084710000000     0          
C2       C      0.110400000000     0.315400000000     0.118350000000     0          
C3       C      0.084000000000     0.262200000000     0.116600000000     0          
H1       H      0.053300000000     0.255500000000     0.094000000000     0          
C4       C      0.102800000000     0.218800000000     0.147930000000     0          
H2       H      0.085400000000     0.182000000000     0.147200000000     0          
C5       C      0.147900000000     0.230700000000     0.180520000000     0          
C6       C      0.173400000000     0.281700000000     0.182650000000     0          
H3       H      0.203700000000     0.288000000000     0.205700000000     0          
C7       C      0.155600000000     0.326100000000     0.151100000000     0          
H4       H      0.173800000000     0.362500000000     0.152000000000     0          
O4       O      0.653290000000     0.056400000000     0.049590000000     0          
O5       O      0.586880000000     0.104640000000     0.094290000000     0          
C1       C      0.637800000000     0.089100000000     0.084710000000     0          
C2       C      0.684600000000     0.110400000000     0.118350000000     0          
C3       C      0.737800000000     0.084000000000     0.116600000000     0          
H1       H      0.744500000000     0.053300000000     0.094000000000     0          
C4       C      0.781200000000     0.102800000000     0.147930000000     0          
H2       H      0.818000000000     0.085400000000     0.147200000000     0          
C5       C      0.769300000000     0.147900000000     0.180520000000     0          
C6       C      0.718300000000     0.173400000000     0.182650000000     0          
H3       H      0.712000000000     0.203700000000     0.205700000000     0          
C7       C      0.673900000000     0.155600000000     0.151100000000     0          
H4       H      0.637500000000     0.173800000000     0.152000000000     0          
O4       O      0.943600000000     0.653290000000     0.049590000000     0          
O5       O      0.895360000000     0.586880000000     0.094290000000     0          
C1       C      0.910900000000     0.637800000000     0.084710000000     0          
C2       C      0.889600000000     0.684600000000     0.118350000000     0          
C3       C      0.916000000000     0.737800000000     0.116600000000     0          
H1       H      0.946700000000     0.744500000000     0.094000000000     0          
C4       C      0.897200000000     0.781200000000     0.147930000000     0          
H2       H      0.914600000000     0.818000000000     0.147200000000     0          
C5       C      0.852100000000     0.769300000000     0.180520000000     0          
C6       C      0.826600000000     0.718300000000     0.182650000000     0          
H3       H      0.796300000000     0.712000000000     0.205700000000     0          
C7       C      0.844400000000     0.673900000000     0.151100000000     0          
H4       H      0.826200000000     0.637500000000     0.152000000000     0          


