data_DAJBOI

_audit_creation_method RASPA-1.0
_audit_creation_date 2020-12-11
_audit_author_name 'Rocio Bueno-Perez'

_cell_length_a    33.6473
_cell_length_b    33.6473
_cell_length_c    33.6473
_cell_angle_alpha 90
_cell_angle_beta  90
_cell_angle_gamma 90
_cell_volume      38093.5

_symmetry_cell_setting          triclinic
_symmetry_space_group_name_Hall 'P 1'
_symmetry_space_group_name_H-M  'P 1'
_symmetry_Int_Tables_number     1

_symmetry_equiv_pos_as_xyz 'x,y,z'

loop_
_atom_site_label
_atom_site_type_symbol
_atom_site_fract_x
_atom_site_fract_y
_atom_site_fract_z
_atom_site_charge
C1       C      0.408200000000     0.094700000000     0.497200000000     0          
C2       C      0.378100000000     0.125500000000     0.486500000000     0          
C3       C      0.389400000000     0.163800000000     0.472900000000     0          
H4       H      0.416700000000     0.170200000000     0.469900000000     0          
C5       C      0.361300000000     0.191300000000     0.464200000000     0          
C6       C      0.320200000000     0.182600000000     0.469300000000     0          
C7       C      0.310500000000     0.145000000000     0.484000000000     0          
H8       H      0.283400000000     0.139500000000     0.489900000000     0          
C9       C      0.338300000000     0.115300000000     0.490500000000     0          
H10      H      0.330400000000     0.089100000000     0.497400000000     0          
C11      C      0.291300000000     0.211900000000     0.462700000000     0          
C12      C      0.264900000000     0.236200000000     0.460700000000     0          
O13      O      0.367700000000     0.228500000000     0.449200000000     0          
C14      C      0.407600000000     0.242700000000     0.444300000000     0          
H15      H      0.421400000000     0.227000000000     0.423600000000     0          
H16      H      0.422500000000     0.240000000000     0.469500000000     0          
C17      C      0.405700000000     0.285200000000     0.432200000000     0          
C18      C      0.382100000000     0.309900000000     0.463100000000     0          
H19      H      0.354200000000     0.300500000000     0.463200000000     0          
H20      H      0.382000000000     0.338000000000     0.454500000000     0          
C21      C      0.371100000000     0.268600000000     0.536100000000     0          
H22      H      0.383700000000     0.242700000000     0.531700000000     0          
H23      H      0.344500000000     0.268600000000     0.524400000000     0          
H24      H      0.369100000000     0.273600000000     0.564800000000     0          
C25      C      0.448800000000     0.299600000000     0.427700000000     0          
H26      H      0.461800000000     0.283300000000     0.406900000000     0          
H27      H      0.462900000000     0.294300000000     0.453000000000     0          
C28      C      0.464700000000     0.373400000000     0.464600000000     0          
H29      H      0.488000000000     0.361000000000     0.476900000000     0          
H30      H      0.441400000000     0.369200000000     0.481600000000     0          
H31      H      0.469400000000     0.401900000000     0.461500000000     0          
C32      C      0.382400000000     0.292600000000     0.393700000000     0          
H33      H      0.380900000000     0.321600000000     0.389200000000     0          
H34      H      0.354900000000     0.282700000000     0.397400000000     0          
C35      C      0.370000000000     0.225800000000     0.345000000000     0          
H36      H      0.377700000000     0.209800000000     0.321400000000     0          
H37      H      0.372100000000     0.209500000000     0.368600000000     0          
H38      H      0.342700000000     0.235000000000     0.341300000000     0          
C39      C      0.595600000000     0.090000000000     0.492600000000     0          
C40      C      0.616300000000     0.161300000000     0.486200000000     0          
H41      H      0.589700000000     0.168200000000     0.492900000000     0          
C42      C      0.643500000000     0.190100000000     0.480200000000     0          
C43      C      0.735900000000     0.235200000000     0.455400000000     0          
O44      O      0.635900000000     0.229800000000     0.483700000000     0          
C45      C      0.604300000000     0.242000000000     0.509200000000     0          
C46      C      0.606600000000     0.289100000000     0.509900000000     0          
C47      C      0.642800000000     0.301700000000     0.526700000000     0          
H48      H      0.643300000000     0.331100000000     0.526000000000     0          
H49      H      0.664500000000     0.292300000000     0.509200000000     0          
S50      S      0.654100000000     0.286800000000     0.575000000000     0          
C51      C      0.701800000000     0.314100000000     0.572700000000     0          
H52      H      0.716000000000     0.310900000000     0.597900000000     0          
H53      H      0.718000000000     0.303400000000     0.551000000000     0          
H54      H      0.696600000000     0.342300000000     0.567900000000     0          
C55      C      0.575200000000     0.300700000000     0.537600000000     0          
H56      H      0.579500000000     0.286500000000     0.563000000000     0          
H57      H      0.549400000000     0.291700000000     0.526700000000     0          
C58      C      0.521700000000     0.361700000000     0.569300000000     0          
H59      H      0.518900000000     0.390100000000     0.575300000000     0          
H60      H      0.501300000000     0.353800000000     0.550100000000     0          
H61      H      0.518500000000     0.346300000000     0.593800000000     0          
C62      C      0.600500000000     0.304300000000     0.467700000000     0          
H63      H      0.623600000000     0.295600000000     0.451600000000     0          
H64      H      0.600900000000     0.333700000000     0.468500000000     0          
C65      C      0.573500000000     0.245300000000     0.414400000000     0          
H66      H      0.601700000000     0.241200000000     0.420200000000     0          
H67      H      0.570000000000     0.249700000000     0.385800000000     0          
H68      H      0.558400000000     0.221700000000     0.422500000000     0          
O69      O      0.445500000000     0.107800000000     0.497600000000     0          
O70      O      0.396600000000     0.059900000000     0.501000000000     0          
O71      O      0.560000000000     0.103600000000     0.495900000000     0          
O72      O      0.606300000000     0.054500000000     0.495100000000     0          
S73      S      0.401100000000     0.307400000000     0.513100000000     0          
S74      S      0.455800000000     0.350740000000     0.415300000000     0          
S75      S      0.403500000000     0.269000000000     0.348800000000     0          
S76      S      0.571600000000     0.352300000000     0.548000000000     0          
S77      S      0.555300000000     0.288800000000     0.441900000000     0          
Zr78     Zr     0.501690000000     0.073460000000     0.498200000000     0          
Hg79     Hg     0.657630000000     0.383760000000     0.389190000000     0          
Cl80     Cl     0.697300000000     0.350700000000     0.439800000000     0          
Cl81     Cl     0.618700000000     0.349200000000     0.343500000000     0          
C82      C      0.625300000000     0.122700000000     0.490000000000     0          
C83      C      0.684300000000     0.177400000000     0.483500000000     0          
C84      C      0.692300000000     0.137600000000     0.476200000000     0          
H85      H      0.718500000000     0.129800000000     0.469000000000     0          
C86      C      0.662700000000     0.109000000000     0.479400000000     0          
H87      H      0.667800000000     0.081600000000     0.474500000000     0          
C88      C      0.714700000000     0.206100000000     0.480200000000     0          
H89      H      0.595800000000     0.231500000000     0.535300000000     0          
H90      H      0.585500000000     0.232700000000     0.488500000000     0          
O91      O      0.540900000000     0.037700000000     0.455700000000     0          
H92      H      0.558100000000     0.053800000000     0.437500000000     0          
O93      O      0.459000000000     0.041000000000     0.459000000000     0          
H94      H      0.441900000000     0.058100000000     0.441900000000     0          
C95      C      0.091800000000     0.405300000000     0.497200000000     0          
C96      C      0.121900000000     0.374500000000     0.486500000000     0          
C97      C      0.110600000000     0.336200000000     0.472900000000     0          
H98      H      0.083300000000     0.329800000000     0.469900000000     0          
C99      C      0.138700000000     0.308700000000     0.464200000000     0          
C100     C      0.179800000000     0.317400000000     0.469300000000     0          
C101     C      0.189500000000     0.355000000000     0.484000000000     0          
H102     H      0.216600000000     0.360500000000     0.489900000000     0          
C103     C      0.161700000000     0.384700000000     0.490500000000     0          
H104     H      0.169600000000     0.410900000000     0.497400000000     0          
C105     C      0.208700000000     0.288100000000     0.462700000000     0          
C106     C      0.235100000000     0.263800000000     0.460700000000     0          
O107     O      0.132300000000     0.271500000000     0.449200000000     0          
C108     C      0.092400000000     0.257300000000     0.444300000000     0          
H109     H      0.078600000000     0.273000000000     0.423600000000     0          
H110     H      0.077500000000     0.260000000000     0.469500000000     0          
C111     C      0.094300000000     0.214800000000     0.432200000000     0          
C112     C      0.117900000000     0.190100000000     0.463100000000     0          
H113     H      0.145800000000     0.199500000000     0.463200000000     0          
H114     H      0.118000000000     0.162000000000     0.454500000000     0          
C115     C      0.128900000000     0.231400000000     0.536100000000     0          
H116     H      0.116300000000     0.257300000000     0.531700000000     0          
H117     H      0.155500000000     0.231400000000     0.524400000000     0          
H118     H      0.130900000000     0.226400000000     0.564800000000     0          
C119     C      0.051200000000     0.200400000000     0.427700000000     0          
H120     H      0.038200000000     0.216700000000     0.406900000000     0          
H121     H      0.037100000000     0.205700000000     0.453000000000     0          
C122     C      0.035300000000     0.126600000000     0.464600000000     0          
H123     H      0.012000000000     0.139000000000     0.476900000000     0          
H124     H      0.058600000000     0.130800000000     0.481600000000     0          
H125     H      0.030600000000     0.098100000000     0.461500000000     0          
C126     C      0.117600000000     0.207400000000     0.393700000000     0          
H127     H      0.119100000000     0.178400000000     0.389200000000     0          
H128     H      0.145100000000     0.217300000000     0.397400000000     0          
C129     C      0.130000000000     0.274200000000     0.345000000000     0          
H130     H      0.122300000000     0.290200000000     0.321400000000     0          
H131     H      0.127900000000     0.290500000000     0.368600000000     0          
H132     H      0.157300000000     0.265000000000     0.341300000000     0          
C133     C      0.904400000000     0.410000000000     0.492600000000     0          
C134     C      0.883700000000     0.338700000000     0.486200000000     0          
H135     H      0.910300000000     0.331800000000     0.492900000000     0          
C136     C      0.856500000000     0.309900000000     0.480200000000     0          
C137     C      0.764100000000     0.264800000000     0.455400000000     0          
O138     O      0.864100000000     0.270200000000     0.483700000000     0          
C139     C      0.895700000000     0.258000000000     0.509200000000     0          
C140     C      0.893400000000     0.210900000000     0.509900000000     0          
C141     C      0.857200000000     0.198300000000     0.526700000000     0          
H142     H      0.856700000000     0.168900000000     0.526000000000     0          
H143     H      0.835500000000     0.207700000000     0.509200000000     0          
S144     S      0.845900000000     0.213200000000     0.575000000000     0          
C145     C      0.798200000000     0.185900000000     0.572700000000     0          
H146     H      0.784000000000     0.189100000000     0.597900000000     0          
H147     H      0.782000000000     0.196600000000     0.551000000000     0          
H148     H      0.803400000000     0.157700000000     0.567900000000     0          
C149     C      0.924800000000     0.199300000000     0.537600000000     0          
H150     H      0.920500000000     0.213500000000     0.563000000000     0          
H151     H      0.950600000000     0.208300000000     0.526700000000     0          
C152     C      0.978300000000     0.138300000000     0.569300000000     0          
H153     H      0.981100000000     0.109900000000     0.575300000000     0          
H154     H      0.998700000000     0.146200000000     0.550100000000     0          
H155     H      0.981500000000     0.153700000000     0.593800000000     0          
C156     C      0.899500000000     0.195700000000     0.467700000000     0          
H157     H      0.876400000000     0.204400000000     0.451600000000     0          
H158     H      0.899100000000     0.166300000000     0.468500000000     0          
C159     C      0.926500000000     0.254700000000     0.414400000000     0          
H160     H      0.898300000000     0.258800000000     0.420200000000     0          
H161     H      0.930000000000     0.250300000000     0.385800000000     0          
H162     H      0.941600000000     0.278300000000     0.422500000000     0          
O163     O      0.054500000000     0.392200000000     0.497600000000     0          
O164     O      0.103400000000     0.440100000000     0.501000000000     0          
O165     O      0.940000000000     0.396400000000     0.495900000000     0          
O166     O      0.893700000000     0.445500000000     0.495100000000     0          
S167     S      0.098900000000     0.192600000000     0.513100000000     0          
S168     S      0.044200000000     0.149260000000     0.415300000000     0          
S169     S      0.096500000000     0.231000000000     0.348800000000     0          
S170     S      0.928400000000     0.147700000000     0.548000000000     0          
S171     S      0.944700000000     0.211200000000     0.441900000000     0          
Zr172    Zr     0.998310000000     0.426540000000     0.498200000000     0          
Hg173    Hg     0.842370000000     0.116240000000     0.389190000000     0          
Cl174    Cl     0.802700000000     0.149300000000     0.439800000000     0          
Cl175    Cl     0.881300000000     0.150800000000     0.343500000000     0          
C176     C      0.874700000000     0.377300000000     0.490000000000     0          
C177     C      0.815700000000     0.322600000000     0.483500000000     0          
C178     C      0.807700000000     0.362400000000     0.476200000000     0          
H179     H      0.781500000000     0.370200000000     0.469000000000     0          
C180     C      0.837300000000     0.391000000000     0.479400000000     0          
H181     H      0.832200000000     0.418400000000     0.474500000000     0          
C182     C      0.785300000000     0.293900000000     0.480200000000     0          
H183     H      0.904200000000     0.268500000000     0.535300000000     0          
H184     H      0.914500000000     0.267300000000     0.488500000000     0          
O185     O      0.959100000000     0.462300000000     0.455700000000     0          
H186     H      0.941900000000     0.446200000000     0.437500000000     0          
O187     O      0.041000000000     0.459000000000     0.459000000000     0          
H188     H      0.058100000000     0.441900000000     0.441900000000     0          
C189     C      0.408200000000     0.405300000000     0.002800000000     0          
C190     C      0.378100000000     0.374500000000     0.013500000000     0          
C191     C      0.389400000000     0.336200000000     0.027100000000     0          
H192     H      0.416700000000     0.329800000000     0.030100000000     0          
C193     C      0.361300000000     0.308700000000     0.035800000000     0          
C194     C      0.320200000000     0.317400000000     0.030700000000     0          
C195     C      0.310500000000     0.355000000000     0.016000000000     0          
H196     H      0.283400000000     0.360500000000     0.010100000000     0          
C197     C      0.338300000000     0.384700000000     0.009500000000     0          
H198     H      0.330400000000     0.410900000000     0.002600000000     0          
C199     C      0.291300000000     0.288100000000     0.037300000000     0          
C200     C      0.264900000000     0.263800000000     0.039300000000     0          
O201     O      0.367700000000     0.271500000000     0.050800000000     0          
C202     C      0.407600000000     0.257300000000     0.055700000000     0          
H203     H      0.421400000000     0.273000000000     0.076400000000     0          
H204     H      0.422500000000     0.260000000000     0.030500000000     0          
C205     C      0.405700000000     0.214800000000     0.067800000000     0          
C206     C      0.382100000000     0.190100000000     0.036900000000     0          
H207     H      0.354200000000     0.199500000000     0.036800000000     0          
H208     H      0.382000000000     0.162000000000     0.045500000000     0          
C209     C      0.371100000000     0.231400000000     0.963900000000     0          
H210     H      0.383700000000     0.257300000000     0.968300000000     0          
H211     H      0.344500000000     0.231400000000     0.975600000000     0          
H212     H      0.369100000000     0.226400000000     0.935200000000     0          
C213     C      0.448800000000     0.200400000000     0.072300000000     0          
H214     H      0.461800000000     0.216700000000     0.093100000000     0          
H215     H      0.462900000000     0.205700000000     0.047000000000     0          
C216     C      0.464700000000     0.126600000000     0.035400000000     0          
H217     H      0.488000000000     0.139000000000     0.023100000000     0          
H218     H      0.441400000000     0.130800000000     0.018400000000     0          
H219     H      0.469400000000     0.098100000000     0.038500000000     0          
C220     C      0.382400000000     0.207400000000     0.106300000000     0          
H221     H      0.380900000000     0.178400000000     0.110800000000     0          
H222     H      0.354900000000     0.217300000000     0.102600000000     0          
C223     C      0.370000000000     0.274200000000     0.155000000000     0          
H224     H      0.377700000000     0.290200000000     0.178600000000     0          
H225     H      0.372100000000     0.290500000000     0.131400000000     0          
H226     H      0.342700000000     0.265000000000     0.158700000000     0          
C227     C      0.595600000000     0.410000000000     0.007400000000     0          
C228     C      0.616300000000     0.338700000000     0.013800000000     0          
H229     H      0.589700000000     0.331800000000     0.007100000000     0          
C230     C      0.643500000000     0.309900000000     0.019800000000     0          
C231     C      0.735900000000     0.264800000000     0.044600000000     0          
O232     O      0.635900000000     0.270200000000     0.016300000000     0          
C233     C      0.604300000000     0.258000000000     0.990800000000     0          
H234     H      0.607900000000     0.269000000000     0.963800000000     0          
H235     H      0.578400000000     0.267000000000     0.001400000000     0          
C236     C      0.606600000000     0.210900000000     0.990100000000     0          
C237     C      0.642800000000     0.198300000000     0.973300000000     0          
H238     H      0.643300000000     0.168900000000     0.974000000000     0          
H239     H      0.664500000000     0.207700000000     0.990800000000     0          
S240     S      0.654100000000     0.213200000000     0.925000000000     0          
C241     C      0.701800000000     0.185900000000     0.927300000000     0          
H242     H      0.716000000000     0.189100000000     0.902100000000     0          
H243     H      0.718000000000     0.196600000000     0.949000000000     0          
H244     H      0.696600000000     0.157700000000     0.932100000000     0          
C245     C      0.575200000000     0.199300000000     0.962400000000     0          
H246     H      0.579500000000     0.213500000000     0.937000000000     0          
H247     H      0.549400000000     0.208300000000     0.973300000000     0          
C248     C      0.521700000000     0.138300000000     0.930700000000     0          
H249     H      0.518900000000     0.109900000000     0.924700000000     0          
H250     H      0.501300000000     0.146200000000     0.949900000000     0          
H251     H      0.518500000000     0.153700000000     0.906200000000     0          
C252     C      0.600500000000     0.195700000000     0.032300000000     0          
H253     H      0.623600000000     0.204400000000     0.048400000000     0          
H254     H      0.600900000000     0.166300000000     0.031500000000     0          
C255     C      0.573500000000     0.254700000000     0.085600000000     0          
H256     H      0.601700000000     0.258800000000     0.079800000000     0          
H257     H      0.570000000000     0.250300000000     0.114200000000     0          
H258     H      0.558400000000     0.278300000000     0.077500000000     0          
O259     O      0.445500000000     0.392200000000     0.002400000000     0          
O260     O      0.396600000000     0.440100000000     0.999000000000     0          
O261     O      0.560000000000     0.396400000000     0.004100000000     0          
O262     O      0.606300000000     0.445500000000     0.004900000000     0          
S263     S      0.401100000000     0.192600000000     0.986900000000     0          
S264     S      0.455800000000     0.149260000000     0.084700000000     0          
S265     S      0.403500000000     0.231000000000     0.151200000000     0          
S266     S      0.571600000000     0.147700000000     0.952000000000     0          
S267     S      0.555300000000     0.211200000000     0.058100000000     0          
Zr268    Zr     0.501690000000     0.426540000000     0.001800000000     0          
Hg269    Hg     0.657630000000     0.116240000000     0.110810000000     0          
Cl270    Cl     0.697300000000     0.149300000000     0.060200000000     0          
Cl271    Cl     0.618700000000     0.150800000000     0.156500000000     0          
C272     C      0.625300000000     0.377300000000     0.010000000000     0          
C273     C      0.684300000000     0.322600000000     0.016500000000     0          
C274     C      0.692300000000     0.362400000000     0.023800000000     0          
H275     H      0.718500000000     0.370200000000     0.031000000000     0          
C276     C      0.662700000000     0.391000000000     0.020600000000     0          
H277     H      0.667800000000     0.418400000000     0.025500000000     0          
C278     C      0.714700000000     0.293900000000     0.019800000000     0          
O279     O      0.540900000000     0.462300000000     0.044300000000     0          
H280     H      0.558100000000     0.446200000000     0.062500000000     0          
O281     O      0.459000000000     0.459000000000     0.041000000000     0          
H282     H      0.441900000000     0.441900000000     0.058100000000     0          
C283     C      0.091800000000     0.094700000000     0.002800000000     0          
C284     C      0.121900000000     0.125500000000     0.013500000000     0          
C285     C      0.110600000000     0.163800000000     0.027100000000     0          
H286     H      0.083300000000     0.170200000000     0.030100000000     0          
C287     C      0.138700000000     0.191300000000     0.035800000000     0          
C288     C      0.179800000000     0.182600000000     0.030700000000     0          
C289     C      0.189500000000     0.145000000000     0.016000000000     0          
H290     H      0.216600000000     0.139500000000     0.010100000000     0          
C291     C      0.161700000000     0.115300000000     0.009500000000     0          
H292     H      0.169600000000     0.089100000000     0.002600000000     0          
C293     C      0.208700000000     0.211900000000     0.037300000000     0          
C294     C      0.235100000000     0.236200000000     0.039300000000     0          
O295     O      0.132300000000     0.228500000000     0.050800000000     0          
C296     C      0.092400000000     0.242700000000     0.055700000000     0          
H297     H      0.078600000000     0.227000000000     0.076400000000     0          
H298     H      0.077500000000     0.240000000000     0.030500000000     0          
C299     C      0.094300000000     0.285200000000     0.067800000000     0          
C300     C      0.117900000000     0.309900000000     0.036900000000     0          
H301     H      0.145800000000     0.300500000000     0.036800000000     0          
H302     H      0.118000000000     0.338000000000     0.045500000000     0          
C303     C      0.128900000000     0.268600000000     0.963900000000     0          
H304     H      0.116300000000     0.242700000000     0.968300000000     0          
H305     H      0.155500000000     0.268600000000     0.975600000000     0          
H306     H      0.130900000000     0.273600000000     0.935200000000     0          
C307     C      0.051200000000     0.299600000000     0.072300000000     0          
H308     H      0.038200000000     0.283300000000     0.093100000000     0          
H309     H      0.037100000000     0.294300000000     0.047000000000     0          
C310     C      0.035300000000     0.373400000000     0.035400000000     0          
H311     H      0.012000000000     0.361000000000     0.023100000000     0          
H312     H      0.058600000000     0.369200000000     0.018400000000     0          
H313     H      0.030600000000     0.401900000000     0.038500000000     0          
C314     C      0.117600000000     0.292600000000     0.106300000000     0          
H315     H      0.119100000000     0.321600000000     0.110800000000     0          
H316     H      0.145100000000     0.282700000000     0.102600000000     0          
C317     C      0.130000000000     0.225800000000     0.155000000000     0          
H318     H      0.122300000000     0.209800000000     0.178600000000     0          
H319     H      0.127900000000     0.209500000000     0.131400000000     0          
H320     H      0.157300000000     0.235000000000     0.158700000000     0          
C321     C      0.904400000000     0.090000000000     0.007400000000     0          
C322     C      0.883700000000     0.161300000000     0.013800000000     0          
H323     H      0.910300000000     0.168200000000     0.007100000000     0          
C324     C      0.856500000000     0.190100000000     0.019800000000     0          
C325     C      0.764100000000     0.235200000000     0.044600000000     0          
O326     O      0.864100000000     0.229800000000     0.016300000000     0          
C327     C      0.895700000000     0.242000000000     0.990800000000     0          
H328     H      0.892100000000     0.231000000000     0.963800000000     0          
H329     H      0.921600000000     0.233000000000     0.001400000000     0          
C330     C      0.893400000000     0.289100000000     0.990100000000     0          
C331     C      0.857200000000     0.301700000000     0.973300000000     0          
H332     H      0.856700000000     0.331100000000     0.974000000000     0          
H333     H      0.835500000000     0.292300000000     0.990800000000     0          
S334     S      0.845900000000     0.286800000000     0.925000000000     0          
C335     C      0.798200000000     0.314100000000     0.927300000000     0          
H336     H      0.784000000000     0.310900000000     0.902100000000     0          
H337     H      0.782000000000     0.303400000000     0.949000000000     0          
H338     H      0.803400000000     0.342300000000     0.932100000000     0          
C339     C      0.924800000000     0.300700000000     0.962400000000     0          
H340     H      0.920500000000     0.286500000000     0.937000000000     0          
H341     H      0.950600000000     0.291700000000     0.973300000000     0          
C342     C      0.978300000000     0.361700000000     0.930700000000     0          
H343     H      0.981100000000     0.390100000000     0.924700000000     0          
H344     H      0.998700000000     0.353800000000     0.949900000000     0          
H345     H      0.981500000000     0.346300000000     0.906200000000     0          
C346     C      0.899500000000     0.304300000000     0.032300000000     0          
H347     H      0.876400000000     0.295600000000     0.048400000000     0          
H348     H      0.899100000000     0.333700000000     0.031500000000     0          
C349     C      0.926500000000     0.245300000000     0.085600000000     0          
H350     H      0.898300000000     0.241200000000     0.079800000000     0          
H351     H      0.930000000000     0.249700000000     0.114200000000     0          
H352     H      0.941600000000     0.221700000000     0.077500000000     0          
O353     O      0.054500000000     0.107800000000     0.002400000000     0          
O354     O      0.103400000000     0.059900000000     0.999000000000     0          
O355     O      0.940000000000     0.103600000000     0.004100000000     0          
O356     O      0.893700000000     0.054500000000     0.004900000000     0          
S357     S      0.098900000000     0.307400000000     0.986900000000     0          
S358     S      0.044200000000     0.350740000000     0.084700000000     0          
S359     S      0.096500000000     0.269000000000     0.151200000000     0          
S360     S      0.928400000000     0.352300000000     0.952000000000     0          
S361     S      0.944700000000     0.288800000000     0.058100000000     0          
Zr362    Zr     0.998310000000     0.073460000000     0.001800000000     0          
Hg363    Hg     0.842370000000     0.383760000000     0.110810000000     0          
Cl364    Cl     0.802700000000     0.350700000000     0.060200000000     0          
Cl365    Cl     0.881300000000     0.349200000000     0.156500000000     0          
C366     C      0.874700000000     0.122700000000     0.010000000000     0          
C367     C      0.815700000000     0.177400000000     0.016500000000     0          
C368     C      0.807700000000     0.137600000000     0.023800000000     0          
H369     H      0.781500000000     0.129800000000     0.031000000000     0          
C370     C      0.837300000000     0.109000000000     0.020600000000     0          
H371     H      0.832200000000     0.081600000000     0.025500000000     0          
C372     C      0.785300000000     0.206100000000     0.019800000000     0          
O373     O      0.959100000000     0.037700000000     0.044300000000     0          
H374     H      0.941900000000     0.053800000000     0.062500000000     0          
O375     O      0.041000000000     0.041000000000     0.041000000000     0          
H376     H      0.058100000000     0.058100000000     0.058100000000     0          
C377     C      0.497200000000     0.408200000000     0.094700000000     0          
C378     C      0.486500000000     0.378100000000     0.125500000000     0          
C379     C      0.472900000000     0.389400000000     0.163800000000     0          
H380     H      0.469900000000     0.416700000000     0.170200000000     0          
C381     C      0.464200000000     0.361300000000     0.191300000000     0          
C382     C      0.469300000000     0.320200000000     0.182600000000     0          
C383     C      0.484000000000     0.310500000000     0.145000000000     0          
H384     H      0.489900000000     0.283400000000     0.139500000000     0          
C385     C      0.490500000000     0.338300000000     0.115300000000     0          
H386     H      0.497400000000     0.330400000000     0.089100000000     0          
C387     C      0.462700000000     0.291300000000     0.211900000000     0          
C388     C      0.460700000000     0.264900000000     0.236200000000     0          
O389     O      0.449200000000     0.367700000000     0.228500000000     0          
C390     C      0.444300000000     0.407600000000     0.242700000000     0          
H391     H      0.423600000000     0.421400000000     0.227000000000     0          
H392     H      0.469500000000     0.422500000000     0.240000000000     0          
C393     C      0.432200000000     0.405700000000     0.285200000000     0          
C394     C      0.463100000000     0.382100000000     0.309900000000     0          
H395     H      0.463200000000     0.354200000000     0.300500000000     0          
H396     H      0.454500000000     0.382000000000     0.338000000000     0          
C397     C      0.536100000000     0.371100000000     0.268600000000     0          
H398     H      0.531700000000     0.383700000000     0.242700000000     0          
H399     H      0.524400000000     0.344500000000     0.268600000000     0          
H400     H      0.564800000000     0.369100000000     0.273600000000     0          
C401     C      0.427700000000     0.448800000000     0.299600000000     0          
H402     H      0.406900000000     0.461800000000     0.283300000000     0          
H403     H      0.453000000000     0.462900000000     0.294300000000     0          
C404     C      0.464600000000     0.464700000000     0.373400000000     0          
H405     H      0.476900000000     0.488000000000     0.361000000000     0          
H406     H      0.481600000000     0.441400000000     0.369200000000     0          
H407     H      0.461500000000     0.469400000000     0.401900000000     0          
C408     C      0.393700000000     0.382400000000     0.292600000000     0          
H409     H      0.389200000000     0.380900000000     0.321600000000     0          
H410     H      0.397400000000     0.354900000000     0.282700000000     0          
C411     C      0.345000000000     0.370000000000     0.225800000000     0          
H412     H      0.321400000000     0.377700000000     0.209800000000     0          
H413     H      0.368600000000     0.372100000000     0.209500000000     0          
H414     H      0.341300000000     0.342700000000     0.235000000000     0          
C415     C      0.492600000000     0.595600000000     0.090000000000     0          
C416     C      0.486200000000     0.616300000000     0.161300000000     0          
H417     H      0.492900000000     0.589700000000     0.168200000000     0          
C418     C      0.480200000000     0.643500000000     0.190100000000     0          
C419     C      0.455400000000     0.735900000000     0.235200000000     0          
C420     C      0.509200000000     0.604300000000     0.242000000000     0          
C421     C      0.509900000000     0.606600000000     0.289100000000     0          
C422     C      0.526700000000     0.642800000000     0.301700000000     0          
H423     H      0.526000000000     0.643300000000     0.331100000000     0          
H424     H      0.509200000000     0.664500000000     0.292300000000     0          
S425     S      0.575000000000     0.654100000000     0.286800000000     0          
C426     C      0.572700000000     0.701800000000     0.314100000000     0          
H427     H      0.597900000000     0.716000000000     0.310900000000     0          
H428     H      0.551000000000     0.718000000000     0.303400000000     0          
H429     H      0.567900000000     0.696600000000     0.342300000000     0          
C430     C      0.537600000000     0.575200000000     0.300700000000     0          
H431     H      0.563000000000     0.579500000000     0.286500000000     0          
H432     H      0.526700000000     0.549400000000     0.291700000000     0          
C433     C      0.569300000000     0.521700000000     0.361700000000     0          
H434     H      0.575300000000     0.518900000000     0.390100000000     0          
H435     H      0.550100000000     0.501300000000     0.353800000000     0          
H436     H      0.593800000000     0.518500000000     0.346300000000     0          
C437     C      0.467700000000     0.600500000000     0.304300000000     0          
H438     H      0.451600000000     0.623600000000     0.295600000000     0          
H439     H      0.468500000000     0.600900000000     0.333700000000     0          
C440     C      0.414400000000     0.573500000000     0.245300000000     0          
H441     H      0.420200000000     0.601700000000     0.241200000000     0          
H442     H      0.385800000000     0.570000000000     0.249700000000     0          
H443     H      0.422500000000     0.558400000000     0.221700000000     0          
O444     O      0.497600000000     0.445500000000     0.107800000000     0          
O445     O      0.501000000000     0.396600000000     0.059900000000     0          
O446     O      0.495900000000     0.560000000000     0.103600000000     0          
O447     O      0.495100000000     0.606300000000     0.054500000000     0          
S448     S      0.513100000000     0.401100000000     0.307400000000     0          
S449     S      0.415300000000     0.455800000000     0.350740000000     0          
S450     S      0.348800000000     0.403500000000     0.269000000000     0          
S451     S      0.548000000000     0.571600000000     0.352300000000     0          
S452     S      0.441900000000     0.555300000000     0.288800000000     0          
Zr453    Zr     0.498200000000     0.501690000000     0.073460000000     0          
Hg454    Hg     0.389190000000     0.657630000000     0.383760000000     0          
Cl455    Cl     0.439800000000     0.697300000000     0.350700000000     0          
Cl456    Cl     0.343500000000     0.618700000000     0.349200000000     0          
C457     C      0.490000000000     0.625300000000     0.122700000000     0          
C458     C      0.483500000000     0.684300000000     0.177400000000     0          
C459     C      0.476200000000     0.692300000000     0.137600000000     0          
H460     H      0.469000000000     0.718500000000     0.129800000000     0          
C461     C      0.479400000000     0.662700000000     0.109000000000     0          
H462     H      0.474500000000     0.667800000000     0.081600000000     0          
C463     C      0.480200000000     0.714700000000     0.206100000000     0          
O464     O      0.500100000000     0.643500000000     0.230000000000     0          
H465     H      0.535300000000     0.595800000000     0.231500000000     0          
H466     H      0.488500000000     0.585500000000     0.232700000000     0          
O467     O      0.455700000000     0.540900000000     0.037700000000     0          
H468     H      0.437500000000     0.558100000000     0.053800000000     0          
C469     C      0.002800000000     0.091800000000     0.094700000000     0          
C470     C      0.013500000000     0.121900000000     0.125500000000     0          
C471     C      0.027100000000     0.110600000000     0.163800000000     0          
H472     H      0.030100000000     0.083300000000     0.170200000000     0          
C473     C      0.035800000000     0.138700000000     0.191300000000     0          
C474     C      0.030700000000     0.179800000000     0.182600000000     0          
C475     C      0.016000000000     0.189500000000     0.145000000000     0          
H476     H      0.010100000000     0.216600000000     0.139500000000     0          
C477     C      0.009500000000     0.161700000000     0.115300000000     0          
H478     H      0.002600000000     0.169600000000     0.089100000000     0          
C479     C      0.037300000000     0.208700000000     0.211900000000     0          
C480     C      0.039300000000     0.235100000000     0.236200000000     0          
O481     O      0.050800000000     0.132300000000     0.228500000000     0          
C482     C      0.055700000000     0.092400000000     0.242700000000     0          
H483     H      0.076400000000     0.078600000000     0.227000000000     0          
H484     H      0.030500000000     0.077500000000     0.240000000000     0          
C485     C      0.067800000000     0.094300000000     0.285200000000     0          
C486     C      0.036900000000     0.117900000000     0.309900000000     0          
H487     H      0.036800000000     0.145800000000     0.300500000000     0          
H488     H      0.045500000000     0.118000000000     0.338000000000     0          
C489     C      0.963900000000     0.128900000000     0.268600000000     0          
H490     H      0.968300000000     0.116300000000     0.242700000000     0          
H491     H      0.975600000000     0.155500000000     0.268600000000     0          
H492     H      0.935200000000     0.130900000000     0.273600000000     0          
C493     C      0.072300000000     0.051200000000     0.299600000000     0          
H494     H      0.093100000000     0.038200000000     0.283300000000     0          
H495     H      0.047000000000     0.037100000000     0.294300000000     0          
C496     C      0.035400000000     0.035300000000     0.373400000000     0          
H497     H      0.023100000000     0.012000000000     0.361000000000     0          
H498     H      0.018400000000     0.058600000000     0.369200000000     0          
H499     H      0.038500000000     0.030600000000     0.401900000000     0          
C500     C      0.106300000000     0.117600000000     0.292600000000     0          
H501     H      0.110800000000     0.119100000000     0.321600000000     0          
H502     H      0.102600000000     0.145100000000     0.282700000000     0          
C503     C      0.155000000000     0.130000000000     0.225800000000     0          
H504     H      0.178600000000     0.122300000000     0.209800000000     0          
H505     H      0.131400000000     0.127900000000     0.209500000000     0          
H506     H      0.158700000000     0.157300000000     0.235000000000     0          
C507     C      0.007400000000     0.904400000000     0.090000000000     0          
C508     C      0.013800000000     0.883700000000     0.161300000000     0          
H509     H      0.007100000000     0.910300000000     0.168200000000     0          
C510     C      0.019800000000     0.856500000000     0.190100000000     0          
C511     C      0.044600000000     0.764100000000     0.235200000000     0          
C512     C      0.990800000000     0.895700000000     0.242000000000     0          
H513     H      0.963800000000     0.892100000000     0.231000000000     0          
H514     H      0.001400000000     0.921600000000     0.233000000000     0          
C515     C      0.990100000000     0.893400000000     0.289100000000     0          
C516     C      0.973300000000     0.857200000000     0.301700000000     0          
H517     H      0.974000000000     0.856700000000     0.331100000000     0          
H518     H      0.990800000000     0.835500000000     0.292300000000     0          
S519     S      0.925000000000     0.845900000000     0.286800000000     0          
C520     C      0.927300000000     0.798200000000     0.314100000000     0          
H521     H      0.902100000000     0.784000000000     0.310900000000     0          
H522     H      0.949000000000     0.782000000000     0.303400000000     0          
H523     H      0.932100000000     0.803400000000     0.342300000000     0          
C524     C      0.962400000000     0.924800000000     0.300700000000     0          
H525     H      0.937000000000     0.920500000000     0.286500000000     0          
H526     H      0.973300000000     0.950600000000     0.291700000000     0          
C527     C      0.930700000000     0.978300000000     0.361700000000     0          
H528     H      0.924700000000     0.981100000000     0.390100000000     0          
H529     H      0.949900000000     0.998700000000     0.353800000000     0          
H530     H      0.906200000000     0.981500000000     0.346300000000     0          
C531     C      0.032300000000     0.899500000000     0.304300000000     0          
H532     H      0.048400000000     0.876400000000     0.295600000000     0          
H533     H      0.031500000000     0.899100000000     0.333700000000     0          
C534     C      0.085600000000     0.926500000000     0.245300000000     0          
H535     H      0.079800000000     0.898300000000     0.241200000000     0          
H536     H      0.114200000000     0.930000000000     0.249700000000     0          
H537     H      0.077500000000     0.941600000000     0.221700000000     0          
O538     O      0.002400000000     0.054500000000     0.107800000000     0          
O539     O      0.999000000000     0.103400000000     0.059900000000     0          
O540     O      0.004100000000     0.940000000000     0.103600000000     0          
O541     O      0.004900000000     0.893700000000     0.054500000000     0          
S542     S      0.986900000000     0.098900000000     0.307400000000     0          
S543     S      0.084700000000     0.044200000000     0.350740000000     0          
S544     S      0.151200000000     0.096500000000     0.269000000000     0          
S545     S      0.952000000000     0.928400000000     0.352300000000     0          
S546     S      0.058100000000     0.944700000000     0.288800000000     0          
Zr547    Zr     0.001800000000     0.998310000000     0.073460000000     0          
Hg548    Hg     0.110810000000     0.842370000000     0.383760000000     0          
Cl549    Cl     0.060200000000     0.802700000000     0.350700000000     0          
Cl550    Cl     0.156500000000     0.881300000000     0.349200000000     0          
C551     C      0.010000000000     0.874700000000     0.122700000000     0          
C552     C      0.016500000000     0.815700000000     0.177400000000     0          
C553     C      0.023800000000     0.807700000000     0.137600000000     0          
H554     H      0.031000000000     0.781500000000     0.129800000000     0          
C555     C      0.020600000000     0.837300000000     0.109000000000     0          
H556     H      0.025500000000     0.832200000000     0.081600000000     0          
C557     C      0.019800000000     0.785300000000     0.206100000000     0          
O558     O      0.999900000000     0.856500000000     0.230000000000     0          
O559     O      0.044300000000     0.959100000000     0.037700000000     0          
H560     H      0.062500000000     0.941900000000     0.053800000000     0          
C561     C      0.497200000000     0.091800000000     0.405300000000     0          
C562     C      0.486500000000     0.121900000000     0.374500000000     0          
C563     C      0.472900000000     0.110600000000     0.336200000000     0          
H564     H      0.469900000000     0.083300000000     0.329800000000     0          
C565     C      0.464200000000     0.138700000000     0.308700000000     0          
C566     C      0.469300000000     0.179800000000     0.317400000000     0          
C567     C      0.484000000000     0.189500000000     0.355000000000     0          
H568     H      0.489900000000     0.216600000000     0.360500000000     0          
C569     C      0.490500000000     0.161700000000     0.384700000000     0          
H570     H      0.497400000000     0.169600000000     0.410900000000     0          
C571     C      0.462700000000     0.208700000000     0.288100000000     0          
C572     C      0.460700000000     0.235100000000     0.263800000000     0          
O573     O      0.449200000000     0.132300000000     0.271500000000     0          
C574     C      0.444300000000     0.092400000000     0.257300000000     0          
H575     H      0.423600000000     0.078600000000     0.273000000000     0          
H576     H      0.469500000000     0.077500000000     0.260000000000     0          
C577     C      0.432200000000     0.094300000000     0.214800000000     0          
C578     C      0.463100000000     0.117900000000     0.190100000000     0          
H579     H      0.463200000000     0.145800000000     0.199500000000     0          
H580     H      0.454500000000     0.118000000000     0.162000000000     0          
C581     C      0.536100000000     0.128900000000     0.231400000000     0          
H582     H      0.531700000000     0.116300000000     0.257300000000     0          
H583     H      0.524400000000     0.155500000000     0.231400000000     0          
H584     H      0.564800000000     0.130900000000     0.226400000000     0          
C585     C      0.427700000000     0.051200000000     0.200400000000     0          
H586     H      0.406900000000     0.038200000000     0.216700000000     0          
H587     H      0.453000000000     0.037100000000     0.205700000000     0          
C588     C      0.464600000000     0.035300000000     0.126600000000     0          
H589     H      0.476900000000     0.012000000000     0.139000000000     0          
H590     H      0.481600000000     0.058600000000     0.130800000000     0          
H591     H      0.461500000000     0.030600000000     0.098100000000     0          
C592     C      0.393700000000     0.117600000000     0.207400000000     0          
H593     H      0.389200000000     0.119100000000     0.178400000000     0          
H594     H      0.397400000000     0.145100000000     0.217300000000     0          
C595     C      0.345000000000     0.130000000000     0.274200000000     0          
H596     H      0.321400000000     0.122300000000     0.290200000000     0          
H597     H      0.368600000000     0.127900000000     0.290500000000     0          
H598     H      0.341300000000     0.157300000000     0.265000000000     0          
C599     C      0.492600000000     0.904400000000     0.410000000000     0          
C600     C      0.486200000000     0.883700000000     0.338700000000     0          
H601     H      0.492900000000     0.910300000000     0.331800000000     0          
C602     C      0.480200000000     0.856500000000     0.309900000000     0          
C603     C      0.455400000000     0.764100000000     0.264800000000     0          
C604     C      0.509200000000     0.895700000000     0.258000000000     0          
C605     C      0.509900000000     0.893400000000     0.210900000000     0          
C606     C      0.526700000000     0.857200000000     0.198300000000     0          
H607     H      0.526000000000     0.856700000000     0.168900000000     0          
H608     H      0.509200000000     0.835500000000     0.207700000000     0          
S609     S      0.575000000000     0.845900000000     0.213200000000     0          
C610     C      0.572700000000     0.798200000000     0.185900000000     0          
H611     H      0.597900000000     0.784000000000     0.189100000000     0          
H612     H      0.551000000000     0.782000000000     0.196600000000     0          
H613     H      0.567900000000     0.803400000000     0.157700000000     0          
C614     C      0.537600000000     0.924800000000     0.199300000000     0          
H615     H      0.563000000000     0.920500000000     0.213500000000     0          
H616     H      0.526700000000     0.950600000000     0.208300000000     0          
C617     C      0.569300000000     0.978300000000     0.138300000000     0          
H618     H      0.575300000000     0.981100000000     0.109900000000     0          
H619     H      0.550100000000     0.998700000000     0.146200000000     0          
H620     H      0.593800000000     0.981500000000     0.153700000000     0          
C621     C      0.467700000000     0.899500000000     0.195700000000     0          
H622     H      0.451600000000     0.876400000000     0.204400000000     0          
H623     H      0.468500000000     0.899100000000     0.166300000000     0          
C624     C      0.414400000000     0.926500000000     0.254700000000     0          
H625     H      0.420200000000     0.898300000000     0.258800000000     0          
H626     H      0.385800000000     0.930000000000     0.250300000000     0          
H627     H      0.422500000000     0.941600000000     0.278300000000     0          
O628     O      0.497600000000     0.054500000000     0.392200000000     0          
O629     O      0.501000000000     0.103400000000     0.440100000000     0          
O630     O      0.495900000000     0.940000000000     0.396400000000     0          
O631     O      0.495100000000     0.893700000000     0.445500000000     0          
S632     S      0.513100000000     0.098900000000     0.192600000000     0          
S633     S      0.415300000000     0.044200000000     0.149260000000     0          
S634     S      0.348800000000     0.096500000000     0.231000000000     0          
S635     S      0.548000000000     0.928400000000     0.147700000000     0          
S636     S      0.441900000000     0.944700000000     0.211200000000     0          
Zr637    Zr     0.498200000000     0.998310000000     0.426540000000     0          
Hg638    Hg     0.389190000000     0.842370000000     0.116240000000     0          
Cl639    Cl     0.439800000000     0.802700000000     0.149300000000     0          
Cl640    Cl     0.343500000000     0.881300000000     0.150800000000     0          
C641     C      0.490000000000     0.874700000000     0.377300000000     0          
C642     C      0.483500000000     0.815700000000     0.322600000000     0          
C643     C      0.476200000000     0.807700000000     0.362400000000     0          
H644     H      0.469000000000     0.781500000000     0.370200000000     0          
C645     C      0.479400000000     0.837300000000     0.391000000000     0          
H646     H      0.474500000000     0.832200000000     0.418400000000     0          
C647     C      0.480200000000     0.785300000000     0.293900000000     0          
O648     O      0.500100000000     0.856500000000     0.270000000000     0          
H649     H      0.535300000000     0.904200000000     0.268500000000     0          
H650     H      0.488500000000     0.914500000000     0.267300000000     0          
O651     O      0.455700000000     0.959100000000     0.462300000000     0          
H652     H      0.437500000000     0.941900000000     0.446200000000     0          
C653     C      0.002800000000     0.408200000000     0.405300000000     0          
C654     C      0.013500000000     0.378100000000     0.374500000000     0          
C655     C      0.027100000000     0.389400000000     0.336200000000     0          
H656     H      0.030100000000     0.416700000000     0.329800000000     0          
C657     C      0.035800000000     0.361300000000     0.308700000000     0          
C658     C      0.030700000000     0.320200000000     0.317400000000     0          
C659     C      0.016000000000     0.310500000000     0.355000000000     0          
H660     H      0.010100000000     0.283400000000     0.360500000000     0          
C661     C      0.009500000000     0.338300000000     0.384700000000     0          
H662     H      0.002600000000     0.330400000000     0.410900000000     0          
C663     C      0.037300000000     0.291300000000     0.288100000000     0          
C664     C      0.039300000000     0.264900000000     0.263800000000     0          
O665     O      0.050800000000     0.367700000000     0.271500000000     0          
C666     C      0.055700000000     0.407600000000     0.257300000000     0          
H667     H      0.076400000000     0.421400000000     0.273000000000     0          
H668     H      0.030500000000     0.422500000000     0.260000000000     0          
C669     C      0.067800000000     0.405700000000     0.214800000000     0          
C670     C      0.036900000000     0.382100000000     0.190100000000     0          
H671     H      0.036800000000     0.354200000000     0.199500000000     0          
H672     H      0.045500000000     0.382000000000     0.162000000000     0          
C673     C      0.963900000000     0.371100000000     0.231400000000     0          
H674     H      0.968300000000     0.383700000000     0.257300000000     0          
H675     H      0.975600000000     0.344500000000     0.231400000000     0          
H676     H      0.935200000000     0.369100000000     0.226400000000     0          
C677     C      0.072300000000     0.448800000000     0.200400000000     0          
H678     H      0.093100000000     0.461800000000     0.216700000000     0          
H679     H      0.047000000000     0.462900000000     0.205700000000     0          
C680     C      0.035400000000     0.464700000000     0.126600000000     0          
H681     H      0.023100000000     0.488000000000     0.139000000000     0          
H682     H      0.018400000000     0.441400000000     0.130800000000     0          
H683     H      0.038500000000     0.469400000000     0.098100000000     0          
C684     C      0.106300000000     0.382400000000     0.207400000000     0          
H685     H      0.110800000000     0.380900000000     0.178400000000     0          
H686     H      0.102600000000     0.354900000000     0.217300000000     0          
C687     C      0.155000000000     0.370000000000     0.274200000000     0          
H688     H      0.178600000000     0.377700000000     0.290200000000     0          
H689     H      0.131400000000     0.372100000000     0.290500000000     0          
H690     H      0.158700000000     0.342700000000     0.265000000000     0          
C691     C      0.007400000000     0.595600000000     0.410000000000     0          
C692     C      0.013800000000     0.616300000000     0.338700000000     0          
H693     H      0.007100000000     0.589700000000     0.331800000000     0          
C694     C      0.019800000000     0.643500000000     0.309900000000     0          
C695     C      0.044600000000     0.735900000000     0.264800000000     0          
O696     O      0.016300000000     0.635900000000     0.270200000000     0          
C697     C      0.990800000000     0.604300000000     0.258000000000     0          
C698     C      0.990100000000     0.606600000000     0.210900000000     0          
C699     C      0.973300000000     0.642800000000     0.198300000000     0          
H700     H      0.974000000000     0.643300000000     0.168900000000     0          
H701     H      0.990800000000     0.664500000000     0.207700000000     0          
S702     S      0.925000000000     0.654100000000     0.213200000000     0          
C703     C      0.927300000000     0.701800000000     0.185900000000     0          
H704     H      0.902100000000     0.716000000000     0.189100000000     0          
H705     H      0.949000000000     0.718000000000     0.196600000000     0          
H706     H      0.932100000000     0.696600000000     0.157700000000     0          
C707     C      0.962400000000     0.575200000000     0.199300000000     0          
H708     H      0.937000000000     0.579500000000     0.213500000000     0          
H709     H      0.973300000000     0.549400000000     0.208300000000     0          
C710     C      0.930700000000     0.521700000000     0.138300000000     0          
H711     H      0.924700000000     0.518900000000     0.109900000000     0          
H712     H      0.949900000000     0.501300000000     0.146200000000     0          
H713     H      0.906200000000     0.518500000000     0.153700000000     0          
C714     C      0.032300000000     0.600500000000     0.195700000000     0          
H715     H      0.048400000000     0.623600000000     0.204400000000     0          
H716     H      0.031500000000     0.600900000000     0.166300000000     0          
C717     C      0.085600000000     0.573500000000     0.254700000000     0          
H718     H      0.079800000000     0.601700000000     0.258800000000     0          
H719     H      0.114200000000     0.570000000000     0.250300000000     0          
H720     H      0.077500000000     0.558400000000     0.278300000000     0          
O721     O      0.002400000000     0.445500000000     0.392200000000     0          
O722     O      0.999000000000     0.396600000000     0.440100000000     0          
O723     O      0.004100000000     0.560000000000     0.396400000000     0          
O724     O      0.004900000000     0.606300000000     0.445500000000     0          
S725     S      0.986900000000     0.401100000000     0.192600000000     0          
S726     S      0.084700000000     0.455800000000     0.149260000000     0          
S727     S      0.151200000000     0.403500000000     0.231000000000     0          
S728     S      0.952000000000     0.571600000000     0.147700000000     0          
S729     S      0.058100000000     0.555300000000     0.211200000000     0          
Zr730    Zr     0.001800000000     0.501690000000     0.426540000000     0          
Hg731    Hg     0.110810000000     0.657630000000     0.116240000000     0          
Cl732    Cl     0.060200000000     0.697300000000     0.149300000000     0          
Cl733    Cl     0.156500000000     0.618700000000     0.150800000000     0          
C734     C      0.010000000000     0.625300000000     0.377300000000     0          
C735     C      0.016500000000     0.684300000000     0.322600000000     0          
C736     C      0.023800000000     0.692300000000     0.362400000000     0          
H737     H      0.031000000000     0.718500000000     0.370200000000     0          
C738     C      0.020600000000     0.662700000000     0.391000000000     0          
H739     H      0.025500000000     0.667800000000     0.418400000000     0          
C740     C      0.019800000000     0.714700000000     0.293900000000     0          
H741     H      0.964700000000     0.595800000000     0.268500000000     0          
H742     H      0.011500000000     0.585500000000     0.267300000000     0          
O743     O      0.044300000000     0.540900000000     0.462300000000     0          
H744     H      0.062500000000     0.558100000000     0.446200000000     0          
C745     C      0.094700000000     0.497200000000     0.408200000000     0          
C746     C      0.125500000000     0.486500000000     0.378100000000     0          
C747     C      0.163800000000     0.472900000000     0.389400000000     0          
H748     H      0.170200000000     0.469900000000     0.416700000000     0          
C749     C      0.191300000000     0.464200000000     0.361300000000     0          
C750     C      0.182600000000     0.469300000000     0.320200000000     0          
C751     C      0.145000000000     0.484000000000     0.310500000000     0          
H752     H      0.139500000000     0.489900000000     0.283400000000     0          
C753     C      0.115300000000     0.490500000000     0.338300000000     0          
H754     H      0.089100000000     0.497400000000     0.330400000000     0          
C755     C      0.211900000000     0.462700000000     0.291300000000     0          
C756     C      0.236200000000     0.460700000000     0.264900000000     0          
O757     O      0.228500000000     0.449200000000     0.367700000000     0          
C758     C      0.242700000000     0.444300000000     0.407600000000     0          
H759     H      0.227000000000     0.423600000000     0.421400000000     0          
H760     H      0.240000000000     0.469500000000     0.422500000000     0          
C761     C      0.285200000000     0.432200000000     0.405700000000     0          
C762     C      0.309900000000     0.463100000000     0.382100000000     0          
H763     H      0.300500000000     0.463200000000     0.354200000000     0          
H764     H      0.338000000000     0.454500000000     0.382000000000     0          
C765     C      0.268600000000     0.536100000000     0.371100000000     0          
H766     H      0.242700000000     0.531700000000     0.383700000000     0          
H767     H      0.268600000000     0.524400000000     0.344500000000     0          
H768     H      0.273600000000     0.564800000000     0.369100000000     0          
C769     C      0.299600000000     0.427700000000     0.448800000000     0          
H770     H      0.283300000000     0.406900000000     0.461800000000     0          
H771     H      0.294300000000     0.453000000000     0.462900000000     0          
C772     C      0.373400000000     0.464600000000     0.464700000000     0          
H773     H      0.361000000000     0.476900000000     0.488000000000     0          
H774     H      0.369200000000     0.481600000000     0.441400000000     0          
H775     H      0.401900000000     0.461500000000     0.469400000000     0          
C776     C      0.292600000000     0.393700000000     0.382400000000     0          
H777     H      0.321600000000     0.389200000000     0.380900000000     0          
H778     H      0.282700000000     0.397400000000     0.354900000000     0          
C779     C      0.225800000000     0.345000000000     0.370000000000     0          
H780     H      0.209800000000     0.321400000000     0.377700000000     0          
H781     H      0.209500000000     0.368600000000     0.372100000000     0          
H782     H      0.235000000000     0.341300000000     0.342700000000     0          
C783     C      0.090000000000     0.492600000000     0.595600000000     0          
C784     C      0.161300000000     0.486200000000     0.616300000000     0          
H785     H      0.168200000000     0.492900000000     0.589700000000     0          
C786     C      0.190100000000     0.480200000000     0.643500000000     0          
C787     C      0.235200000000     0.455400000000     0.735900000000     0          
C788     C      0.242000000000     0.509200000000     0.604300000000     0          
H789     H      0.231000000000     0.536200000000     0.607900000000     0          
H790     H      0.233000000000     0.498600000000     0.578400000000     0          
C791     C      0.289100000000     0.509900000000     0.606600000000     0          
C792     C      0.301700000000     0.526700000000     0.642800000000     0          
H793     H      0.331100000000     0.526000000000     0.643300000000     0          
H794     H      0.292300000000     0.509200000000     0.664500000000     0          
S795     S      0.286800000000     0.575000000000     0.654100000000     0          
C796     C      0.314100000000     0.572700000000     0.701800000000     0          
H797     H      0.310900000000     0.597900000000     0.716000000000     0          
H798     H      0.303400000000     0.551000000000     0.718000000000     0          
H799     H      0.342300000000     0.567900000000     0.696600000000     0          
C800     C      0.300700000000     0.537600000000     0.575200000000     0          
H801     H      0.286500000000     0.563000000000     0.579500000000     0          
H802     H      0.291700000000     0.526700000000     0.549400000000     0          
C803     C      0.361700000000     0.569300000000     0.521700000000     0          
H804     H      0.390100000000     0.575300000000     0.518900000000     0          
H805     H      0.353800000000     0.550100000000     0.501300000000     0          
H806     H      0.346300000000     0.593800000000     0.518500000000     0          
C807     C      0.304300000000     0.467700000000     0.600500000000     0          
H808     H      0.295600000000     0.451600000000     0.623600000000     0          
H809     H      0.333700000000     0.468500000000     0.600900000000     0          
C810     C      0.245300000000     0.414400000000     0.573500000000     0          
H811     H      0.241200000000     0.420200000000     0.601700000000     0          
H812     H      0.249700000000     0.385800000000     0.570000000000     0          
H813     H      0.221700000000     0.422500000000     0.558400000000     0          
O814     O      0.107800000000     0.497600000000     0.445500000000     0          
O815     O      0.059900000000     0.501000000000     0.396600000000     0          
O816     O      0.103600000000     0.495900000000     0.560000000000     0          
O817     O      0.054500000000     0.495100000000     0.606300000000     0          
S818     S      0.307400000000     0.513100000000     0.401100000000     0          
S819     S      0.350740000000     0.415300000000     0.455800000000     0          
S820     S      0.269000000000     0.348800000000     0.403500000000     0          
S821     S      0.352300000000     0.548000000000     0.571600000000     0          
S822     S      0.288800000000     0.441900000000     0.555300000000     0          
Zr823    Zr     0.073460000000     0.498200000000     0.501690000000     0          
Hg824    Hg     0.383760000000     0.389190000000     0.657630000000     0          
Cl825    Cl     0.350700000000     0.439800000000     0.697300000000     0          
Cl826    Cl     0.349200000000     0.343500000000     0.618700000000     0          
C827     C      0.122700000000     0.490000000000     0.625300000000     0          
C828     C      0.177400000000     0.483500000000     0.684300000000     0          
C829     C      0.137600000000     0.476200000000     0.692300000000     0          
H830     H      0.129800000000     0.469000000000     0.718500000000     0          
C831     C      0.109000000000     0.479400000000     0.662700000000     0          
H832     H      0.081600000000     0.474500000000     0.667800000000     0          
C833     C      0.206100000000     0.480200000000     0.714700000000     0          
O834     O      0.230000000000     0.500100000000     0.643500000000     0          
O835     O      0.037700000000     0.455700000000     0.540900000000     0          
H836     H      0.053800000000     0.437500000000     0.558100000000     0          
C837     C      0.094700000000     0.002800000000     0.091800000000     0          
C838     C      0.125500000000     0.013500000000     0.121900000000     0          
C839     C      0.163800000000     0.027100000000     0.110600000000     0          
H840     H      0.170200000000     0.030100000000     0.083300000000     0          
C841     C      0.191300000000     0.035800000000     0.138700000000     0          
C842     C      0.182600000000     0.030700000000     0.179800000000     0          
C843     C      0.145000000000     0.016000000000     0.189500000000     0          
H844     H      0.139500000000     0.010100000000     0.216600000000     0          
C845     C      0.115300000000     0.009500000000     0.161700000000     0          
H846     H      0.089100000000     0.002600000000     0.169600000000     0          
C847     C      0.211900000000     0.037300000000     0.208700000000     0          
C848     C      0.236200000000     0.039300000000     0.235100000000     0          
O849     O      0.228500000000     0.050800000000     0.132300000000     0          
C850     C      0.242700000000     0.055700000000     0.092400000000     0          
H851     H      0.227000000000     0.076400000000     0.078600000000     0          
H852     H      0.240000000000     0.030500000000     0.077500000000     0          
C853     C      0.285200000000     0.067800000000     0.094300000000     0          
C854     C      0.309900000000     0.036900000000     0.117900000000     0          
H855     H      0.300500000000     0.036800000000     0.145800000000     0          
H856     H      0.338000000000     0.045500000000     0.118000000000     0          
C857     C      0.268600000000     0.963900000000     0.128900000000     0          
H858     H      0.242700000000     0.968300000000     0.116300000000     0          
H859     H      0.268600000000     0.975600000000     0.155500000000     0          
H860     H      0.273600000000     0.935200000000     0.130900000000     0          
C861     C      0.299600000000     0.072300000000     0.051200000000     0          
H862     H      0.283300000000     0.093100000000     0.038200000000     0          
H863     H      0.294300000000     0.047000000000     0.037100000000     0          
C864     C      0.373400000000     0.035400000000     0.035300000000     0          
H865     H      0.361000000000     0.023100000000     0.012000000000     0          
H866     H      0.369200000000     0.018400000000     0.058600000000     0          
H867     H      0.401900000000     0.038500000000     0.030600000000     0          
C868     C      0.292600000000     0.106300000000     0.117600000000     0          
H869     H      0.321600000000     0.110800000000     0.119100000000     0          
H870     H      0.282700000000     0.102600000000     0.145100000000     0          
C871     C      0.225800000000     0.155000000000     0.130000000000     0          
H872     H      0.209800000000     0.178600000000     0.122300000000     0          
H873     H      0.209500000000     0.131400000000     0.127900000000     0          
H874     H      0.235000000000     0.158700000000     0.157300000000     0          
C875     C      0.090000000000     0.007400000000     0.904400000000     0          
C876     C      0.161300000000     0.013800000000     0.883700000000     0          
H877     H      0.168200000000     0.007100000000     0.910300000000     0          
C878     C      0.190100000000     0.019800000000     0.856500000000     0          
C879     C      0.235200000000     0.044600000000     0.764100000000     0          
C880     C      0.242000000000     0.990800000000     0.895700000000     0          
C881     C      0.289100000000     0.990100000000     0.893400000000     0          
C882     C      0.301700000000     0.973300000000     0.857200000000     0          
H883     H      0.331100000000     0.974000000000     0.856700000000     0          
H884     H      0.292300000000     0.990800000000     0.835500000000     0          
S885     S      0.286800000000     0.925000000000     0.845900000000     0          
C886     C      0.314100000000     0.927300000000     0.798200000000     0          
H887     H      0.310900000000     0.902100000000     0.784000000000     0          
H888     H      0.303400000000     0.949000000000     0.782000000000     0          
H889     H      0.342300000000     0.932100000000     0.803400000000     0          
C890     C      0.300700000000     0.962400000000     0.924800000000     0          
H891     H      0.286500000000     0.937000000000     0.920500000000     0          
H892     H      0.291700000000     0.973300000000     0.950600000000     0          
C893     C      0.361700000000     0.930700000000     0.978300000000     0          
H894     H      0.390100000000     0.924700000000     0.981100000000     0          
H895     H      0.353800000000     0.949900000000     0.998700000000     0          
H896     H      0.346300000000     0.906200000000     0.981500000000     0          
C897     C      0.304300000000     0.032300000000     0.899500000000     0          
H898     H      0.295600000000     0.048400000000     0.876400000000     0          
H899     H      0.333700000000     0.031500000000     0.899100000000     0          
C900     C      0.245300000000     0.085600000000     0.926500000000     0          
H901     H      0.241200000000     0.079800000000     0.898300000000     0          
H902     H      0.249700000000     0.114200000000     0.930000000000     0          
H903     H      0.221700000000     0.077500000000     0.941600000000     0          
O904     O      0.107800000000     0.002400000000     0.054500000000     0          
O905     O      0.059900000000     0.999000000000     0.103400000000     0          
O906     O      0.103600000000     0.004100000000     0.940000000000     0          
O907     O      0.054500000000     0.004900000000     0.893700000000     0          
S908     S      0.307400000000     0.986900000000     0.098900000000     0          
S909     S      0.350740000000     0.084700000000     0.044200000000     0          
S910     S      0.269000000000     0.151200000000     0.096500000000     0          
S911     S      0.352300000000     0.952000000000     0.928400000000     0          
S912     S      0.288800000000     0.058100000000     0.944700000000     0          
Zr913    Zr     0.073460000000     0.001800000000     0.998310000000     0          
Hg914    Hg     0.383760000000     0.110810000000     0.842370000000     0          
Cl915    Cl     0.350700000000     0.060200000000     0.802700000000     0          
Cl916    Cl     0.349200000000     0.156500000000     0.881300000000     0          
C917     C      0.122700000000     0.010000000000     0.874700000000     0          
C918     C      0.177400000000     0.016500000000     0.815700000000     0          
C919     C      0.137600000000     0.023800000000     0.807700000000     0          
H920     H      0.129800000000     0.031000000000     0.781500000000     0          
C921     C      0.109000000000     0.020600000000     0.837300000000     0          
H922     H      0.081600000000     0.025500000000     0.832200000000     0          
C923     C      0.206100000000     0.019800000000     0.785300000000     0          
O924     O      0.230000000000     0.999900000000     0.856500000000     0          
H925     H      0.231500000000     0.964700000000     0.904200000000     0          
H926     H      0.232700000000     0.011500000000     0.914500000000     0          
O927     O      0.037700000000     0.044300000000     0.959100000000     0          
H928     H      0.053800000000     0.062500000000     0.941900000000     0          
C929     C      0.405300000000     0.497200000000     0.091800000000     0          
C930     C      0.374500000000     0.486500000000     0.121900000000     0          
C931     C      0.336200000000     0.472900000000     0.110600000000     0          
H932     H      0.329800000000     0.469900000000     0.083300000000     0          
C933     C      0.308700000000     0.464200000000     0.138700000000     0          
C934     C      0.317400000000     0.469300000000     0.179800000000     0          
C935     C      0.355000000000     0.484000000000     0.189500000000     0          
H936     H      0.360500000000     0.489900000000     0.216600000000     0          
C937     C      0.384700000000     0.490500000000     0.161700000000     0          
H938     H      0.410900000000     0.497400000000     0.169600000000     0          
C939     C      0.288100000000     0.462700000000     0.208700000000     0          
C940     C      0.263800000000     0.460700000000     0.235100000000     0          
O941     O      0.271500000000     0.449200000000     0.132300000000     0          
C942     C      0.257300000000     0.444300000000     0.092400000000     0          
H943     H      0.273000000000     0.423600000000     0.078600000000     0          
H944     H      0.260000000000     0.469500000000     0.077500000000     0          
C945     C      0.214800000000     0.432200000000     0.094300000000     0          
C946     C      0.190100000000     0.463100000000     0.117900000000     0          
H947     H      0.199500000000     0.463200000000     0.145800000000     0          
H948     H      0.162000000000     0.454500000000     0.118000000000     0          
C949     C      0.231400000000     0.536100000000     0.128900000000     0          
H950     H      0.257300000000     0.531700000000     0.116300000000     0          
H951     H      0.231400000000     0.524400000000     0.155500000000     0          
H952     H      0.226400000000     0.564800000000     0.130900000000     0          
C953     C      0.200400000000     0.427700000000     0.051200000000     0          
H954     H      0.216700000000     0.406900000000     0.038200000000     0          
H955     H      0.205700000000     0.453000000000     0.037100000000     0          
C956     C      0.126600000000     0.464600000000     0.035300000000     0          
H957     H      0.139000000000     0.476900000000     0.012000000000     0          
H958     H      0.130800000000     0.481600000000     0.058600000000     0          
H959     H      0.098100000000     0.461500000000     0.030600000000     0          
C960     C      0.207400000000     0.393700000000     0.117600000000     0          
H961     H      0.178400000000     0.389200000000     0.119100000000     0          
H962     H      0.217300000000     0.397400000000     0.145100000000     0          
C963     C      0.274200000000     0.345000000000     0.130000000000     0          
H964     H      0.290500000000     0.368600000000     0.127900000000     0          
H965     H      0.265000000000     0.341300000000     0.157300000000     0          
C966     C      0.410000000000     0.492600000000     0.904400000000     0          
C967     C      0.338700000000     0.486200000000     0.883700000000     0          
H968     H      0.331800000000     0.492900000000     0.910300000000     0          
C969     C      0.309900000000     0.480200000000     0.856500000000     0          
C970     C      0.264800000000     0.455400000000     0.764100000000     0          
O971     O      0.270200000000     0.483700000000     0.864100000000     0          
C972     C      0.258000000000     0.509200000000     0.895700000000     0          
H973     H      0.269000000000     0.536200000000     0.892100000000     0          
H974     H      0.267000000000     0.498600000000     0.921600000000     0          
C975     C      0.210900000000     0.509900000000     0.893400000000     0          
C976     C      0.198300000000     0.526700000000     0.857200000000     0          
H977     H      0.168900000000     0.526000000000     0.856700000000     0          
H978     H      0.207700000000     0.509200000000     0.835500000000     0          
S979     S      0.213200000000     0.575000000000     0.845900000000     0          
C980     C      0.185900000000     0.572700000000     0.798200000000     0          
H981     H      0.189100000000     0.597900000000     0.784000000000     0          
H982     H      0.196600000000     0.551000000000     0.782000000000     0          
H983     H      0.157700000000     0.567900000000     0.803400000000     0          
C984     C      0.199300000000     0.537600000000     0.924800000000     0          
H985     H      0.213500000000     0.563000000000     0.920500000000     0          
H986     H      0.208300000000     0.526700000000     0.950600000000     0          
C987     C      0.138300000000     0.569300000000     0.978300000000     0          
H988     H      0.109900000000     0.575300000000     0.981100000000     0          
H989     H      0.146200000000     0.550100000000     0.998700000000     0          
H990     H      0.153700000000     0.593800000000     0.981500000000     0          
C991     C      0.195700000000     0.467700000000     0.899500000000     0          
H992     H      0.204400000000     0.451600000000     0.876400000000     0          
H993     H      0.166300000000     0.468500000000     0.899100000000     0          
C994     C      0.254700000000     0.414400000000     0.926500000000     0          
H995     H      0.258800000000     0.420200000000     0.898300000000     0          
H996     H      0.250300000000     0.385800000000     0.930000000000     0          
H997     H      0.278300000000     0.422500000000     0.941600000000     0          
O998     O      0.392200000000     0.497600000000     0.054500000000     0          
O999     O      0.440100000000     0.501000000000     0.103400000000     0          
O1000    O      0.396400000000     0.495900000000     0.940000000000     0          
O1001    O      0.445500000000     0.495100000000     0.893700000000     0          
S1002    S      0.192600000000     0.513100000000     0.098900000000     0          
S1003    S      0.149260000000     0.415300000000     0.044200000000     0          
S1004    S      0.231000000000     0.348800000000     0.096500000000     0          
S1005    S      0.147700000000     0.548000000000     0.928400000000     0          
S1006    S      0.211200000000     0.441900000000     0.944700000000     0          
Zr1007   Zr     0.426540000000     0.498200000000     0.998310000000     0          
Hg1008   Hg     0.116240000000     0.389190000000     0.842370000000     0          
Cl1009   Cl     0.149300000000     0.439800000000     0.802700000000     0          
Cl1010   Cl     0.150800000000     0.343500000000     0.881300000000     0          
H1011    H      0.295300000000     0.324400000000     0.110200000000     0          
C1012    C      0.377300000000     0.490000000000     0.874700000000     0          
C1013    C      0.322600000000     0.483500000000     0.815700000000     0          
C1014    C      0.362400000000     0.476200000000     0.807700000000     0          
H1015    H      0.370200000000     0.469000000000     0.781500000000     0          
C1016    C      0.391000000000     0.479400000000     0.837300000000     0          
H1017    H      0.418400000000     0.474500000000     0.832200000000     0          
C1018    C      0.293900000000     0.480200000000     0.785300000000     0          
O1019    O      0.462300000000     0.455700000000     0.959100000000     0          
H1020    H      0.446200000000     0.437500000000     0.941900000000     0          
C1021    C      0.405300000000     0.002800000000     0.408200000000     0          
C1022    C      0.374500000000     0.013500000000     0.378100000000     0          
C1023    C      0.336200000000     0.027100000000     0.389400000000     0          
H1024    H      0.329800000000     0.030100000000     0.416700000000     0          
C1025    C      0.308700000000     0.035800000000     0.361300000000     0          
C1026    C      0.317400000000     0.030700000000     0.320200000000     0          
C1027    C      0.355000000000     0.016000000000     0.310500000000     0          
H1028    H      0.360500000000     0.010100000000     0.283400000000     0          
C1029    C      0.384700000000     0.009500000000     0.338300000000     0          
H1030    H      0.410900000000     0.002600000000     0.330400000000     0          
C1031    C      0.288100000000     0.037300000000     0.291300000000     0          
C1032    C      0.263800000000     0.039300000000     0.264900000000     0          
O1033    O      0.271500000000     0.050800000000     0.367700000000     0          
C1034    C      0.257300000000     0.055700000000     0.407600000000     0          
H1035    H      0.273000000000     0.076400000000     0.421400000000     0          
H1036    H      0.260000000000     0.030500000000     0.422500000000     0          
C1037    C      0.214800000000     0.067800000000     0.405700000000     0          
C1038    C      0.190100000000     0.036900000000     0.382100000000     0          
H1039    H      0.199500000000     0.036800000000     0.354200000000     0          
H1040    H      0.162000000000     0.045500000000     0.382000000000     0          
C1041    C      0.231400000000     0.963900000000     0.371100000000     0          
H1042    H      0.257300000000     0.968300000000     0.383700000000     0          
H1043    H      0.231400000000     0.975600000000     0.344500000000     0          
H1044    H      0.226400000000     0.935200000000     0.369100000000     0          
C1045    C      0.200400000000     0.072300000000     0.448800000000     0          
H1046    H      0.216700000000     0.093100000000     0.461800000000     0          
H1047    H      0.205700000000     0.047000000000     0.462900000000     0          
C1048    C      0.126600000000     0.035400000000     0.464700000000     0          
H1049    H      0.139000000000     0.023100000000     0.488000000000     0          
H1050    H      0.130800000000     0.018400000000     0.441400000000     0          
H1051    H      0.098100000000     0.038500000000     0.469400000000     0          
C1052    C      0.207400000000     0.106300000000     0.382400000000     0          
H1053    H      0.178400000000     0.110800000000     0.380900000000     0          
H1054    H      0.217300000000     0.102600000000     0.354900000000     0          
C1055    C      0.274200000000     0.155000000000     0.370000000000     0          
H1056    H      0.290200000000     0.178600000000     0.377700000000     0          
H1057    H      0.290500000000     0.131400000000     0.372100000000     0          
H1058    H      0.265000000000     0.158700000000     0.342700000000     0          
C1059    C      0.410000000000     0.007400000000     0.595600000000     0          
C1060    C      0.338700000000     0.013800000000     0.616300000000     0          
H1061    H      0.331800000000     0.007100000000     0.589700000000     0          
C1062    C      0.309900000000     0.019800000000     0.643500000000     0          
C1063    C      0.264800000000     0.044600000000     0.735900000000     0          
O1064    O      0.270200000000     0.016300000000     0.635900000000     0          
C1065    C      0.258000000000     0.990800000000     0.604300000000     0          
H1066    H      0.269000000000     0.963800000000     0.607900000000     0          
H1067    H      0.267000000000     0.001400000000     0.578400000000     0          
C1068    C      0.210900000000     0.990100000000     0.606600000000     0          
C1069    C      0.198300000000     0.973300000000     0.642800000000     0          
H1070    H      0.168900000000     0.974000000000     0.643300000000     0          
H1071    H      0.207700000000     0.990800000000     0.664500000000     0          
S1072    S      0.213200000000     0.925000000000     0.654100000000     0          
C1073    C      0.185900000000     0.927300000000     0.701800000000     0          
H1074    H      0.189100000000     0.902100000000     0.716000000000     0          
H1075    H      0.196600000000     0.949000000000     0.718000000000     0          
H1076    H      0.157700000000     0.932100000000     0.696600000000     0          
C1077    C      0.199300000000     0.962400000000     0.575200000000     0          
H1078    H      0.213500000000     0.937000000000     0.579500000000     0          
H1079    H      0.208300000000     0.973300000000     0.549400000000     0          
C1080    C      0.138300000000     0.930700000000     0.521700000000     0          
H1081    H      0.109900000000     0.924700000000     0.518900000000     0          
H1082    H      0.146200000000     0.949900000000     0.501300000000     0          
H1083    H      0.153700000000     0.906200000000     0.518500000000     0          
C1084    C      0.195700000000     0.032300000000     0.600500000000     0          
H1085    H      0.204400000000     0.048400000000     0.623600000000     0          
H1086    H      0.166300000000     0.031500000000     0.600900000000     0          
C1087    C      0.254700000000     0.085600000000     0.573500000000     0          
H1088    H      0.258800000000     0.079800000000     0.601700000000     0          
H1089    H      0.250300000000     0.114200000000     0.570000000000     0          
H1090    H      0.278300000000     0.077500000000     0.558400000000     0          
O1091    O      0.392200000000     0.002400000000     0.445500000000     0          
O1092    O      0.440100000000     0.999000000000     0.396600000000     0          
O1093    O      0.396400000000     0.004100000000     0.560000000000     0          
O1094    O      0.445500000000     0.004900000000     0.606300000000     0          
S1095    S      0.192600000000     0.986900000000     0.401100000000     0          
S1096    S      0.149260000000     0.084700000000     0.455800000000     0          
S1097    S      0.231000000000     0.151200000000     0.403500000000     0          
S1098    S      0.147700000000     0.952000000000     0.571600000000     0          
S1099    S      0.211200000000     0.058100000000     0.555300000000     0          
Zr1100   Zr     0.426540000000     0.001800000000     0.501690000000     0          
Hg1101   Hg     0.116240000000     0.110810000000     0.657630000000     0          
Cl1102   Cl     0.149300000000     0.060200000000     0.697300000000     0          
Cl1103   Cl     0.150800000000     0.156500000000     0.618700000000     0          
C1104    C      0.377300000000     0.010000000000     0.625300000000     0          
C1105    C      0.322600000000     0.016500000000     0.684300000000     0          
C1106    C      0.362400000000     0.023800000000     0.692300000000     0          
H1107    H      0.370200000000     0.031000000000     0.718500000000     0          
C1108    C      0.391000000000     0.020600000000     0.662700000000     0          
H1109    H      0.418400000000     0.025500000000     0.667800000000     0          
C1110    C      0.293900000000     0.019800000000     0.714700000000     0          
O1111    O      0.462300000000     0.044300000000     0.540900000000     0          
H1112    H      0.446200000000     0.062500000000     0.558100000000     0          
C1113    C      0.591800000000     0.905300000000     0.502800000000     0          
C1114    C      0.621900000000     0.874500000000     0.513500000000     0          
C1115    C      0.610600000000     0.836200000000     0.527100000000     0          
H1116    H      0.583300000000     0.829800000000     0.530100000000     0          
C1117    C      0.638700000000     0.808700000000     0.535800000000     0          
C1118    C      0.679800000000     0.817400000000     0.530700000000     0          
C1119    C      0.689500000000     0.855000000000     0.516000000000     0          
H1120    H      0.716600000000     0.860500000000     0.510100000000     0          
C1121    C      0.661700000000     0.884700000000     0.509500000000     0          
H1122    H      0.669600000000     0.910900000000     0.502600000000     0          
C1123    C      0.708700000000     0.788100000000     0.537300000000     0          
C1124    C      0.735100000000     0.763800000000     0.539300000000     0          
O1125    O      0.632300000000     0.771500000000     0.550800000000     0          
C1126    C      0.592400000000     0.757300000000     0.555700000000     0          
H1127    H      0.578600000000     0.773000000000     0.576400000000     0          
H1128    H      0.577500000000     0.760000000000     0.530500000000     0          
C1129    C      0.594300000000     0.714800000000     0.567800000000     0          
C1130    C      0.617900000000     0.690100000000     0.536900000000     0          
H1131    H      0.645800000000     0.699500000000     0.536800000000     0          
H1132    H      0.618000000000     0.662000000000     0.545500000000     0          
C1133    C      0.628900000000     0.731400000000     0.463900000000     0          
H1134    H      0.616300000000     0.757300000000     0.468300000000     0          
H1135    H      0.655500000000     0.731400000000     0.475600000000     0          
H1136    H      0.630900000000     0.726400000000     0.435200000000     0          
C1137    C      0.551200000000     0.700400000000     0.572300000000     0          
H1138    H      0.538200000000     0.716700000000     0.593100000000     0          
H1139    H      0.537100000000     0.705700000000     0.547000000000     0          
C1140    C      0.535300000000     0.626600000000     0.535400000000     0          
H1141    H      0.512000000000     0.639000000000     0.523100000000     0          
H1142    H      0.558600000000     0.630800000000     0.518400000000     0          
H1143    H      0.530600000000     0.598100000000     0.538500000000     0          
C1144    C      0.617600000000     0.707400000000     0.606300000000     0          
H1145    H      0.619100000000     0.678400000000     0.610800000000     0          
H1146    H      0.645100000000     0.717300000000     0.602600000000     0          
C1147    C      0.630000000000     0.774200000000     0.655000000000     0          
H1148    H      0.622300000000     0.790200000000     0.678600000000     0          
H1149    H      0.627900000000     0.790500000000     0.631400000000     0          
H1150    H      0.657300000000     0.765000000000     0.658700000000     0          
C1151    C      0.404400000000     0.910000000000     0.507400000000     0          
C1152    C      0.383700000000     0.838700000000     0.513800000000     0          
H1153    H      0.410300000000     0.831800000000     0.507100000000     0          
C1154    C      0.356500000000     0.809900000000     0.519800000000     0          
C1155    C      0.264100000000     0.764800000000     0.544600000000     0          
O1156    O      0.364100000000     0.770200000000     0.516300000000     0          
C1157    C      0.395700000000     0.758000000000     0.490800000000     0          
H1158    H      0.392100000000     0.769000000000     0.463800000000     0          
H1159    H      0.421600000000     0.767000000000     0.501400000000     0          
C1160    C      0.393400000000     0.710900000000     0.490100000000     0          
C1161    C      0.357200000000     0.698300000000     0.473300000000     0          
H1162    H      0.356700000000     0.668900000000     0.474000000000     0          
H1163    H      0.335500000000     0.707700000000     0.490800000000     0          
S1164    S      0.345900000000     0.713200000000     0.425000000000     0          
C1165    C      0.298200000000     0.685900000000     0.427300000000     0          
H1166    H      0.284000000000     0.689100000000     0.402100000000     0          
H1167    H      0.282000000000     0.696600000000     0.449000000000     0          
H1168    H      0.303400000000     0.657700000000     0.432100000000     0          
C1169    C      0.424800000000     0.699300000000     0.462400000000     0          
H1170    H      0.420500000000     0.713500000000     0.437000000000     0          
H1171    H      0.450600000000     0.708300000000     0.473300000000     0          
C1172    C      0.478300000000     0.638300000000     0.430700000000     0          
H1173    H      0.481100000000     0.609900000000     0.424700000000     0          
H1174    H      0.498700000000     0.646200000000     0.449900000000     0          
H1175    H      0.481500000000     0.653700000000     0.406200000000     0          
C1176    C      0.399500000000     0.695700000000     0.532300000000     0          
H1177    H      0.376400000000     0.704400000000     0.548400000000     0          
H1178    H      0.399100000000     0.666300000000     0.531500000000     0          
C1179    C      0.426500000000     0.754700000000     0.585600000000     0          
H1180    H      0.398300000000     0.758800000000     0.579800000000     0          
H1181    H      0.430000000000     0.750300000000     0.614200000000     0          
H1182    H      0.441600000000     0.778300000000     0.577500000000     0          
O1183    O      0.554500000000     0.892200000000     0.502400000000     0          
O1184    O      0.603400000000     0.940100000000     0.499000000000     0          
O1185    O      0.440000000000     0.896400000000     0.504100000000     0          
O1186    O      0.393700000000     0.945500000000     0.504900000000     0          
S1187    S      0.598900000000     0.692600000000     0.486900000000     0          
S1188    S      0.544200000000     0.649260000000     0.584700000000     0          
S1189    S      0.596500000000     0.731000000000     0.651200000000     0          
S1190    S      0.428400000000     0.647700000000     0.452000000000     0          
S1191    S      0.444700000000     0.711200000000     0.558100000000     0          
Zr1192   Zr     0.498310000000     0.926540000000     0.501800000000     0          
Hg1193   Hg     0.342370000000     0.616240000000     0.610810000000     0          
Cl1194   Cl     0.302700000000     0.649300000000     0.560200000000     0          
Cl1195   Cl     0.381300000000     0.650800000000     0.656500000000     0          
C1196    C      0.374700000000     0.877300000000     0.510000000000     0          
C1197    C      0.315700000000     0.822600000000     0.516500000000     0          
C1198    C      0.307700000000     0.862400000000     0.523800000000     0          
H1199    H      0.281500000000     0.870200000000     0.531000000000     0          
C1200    C      0.337300000000     0.891000000000     0.520600000000     0          
H1201    H      0.332200000000     0.918400000000     0.525500000000     0          
C1202    C      0.285300000000     0.793900000000     0.519800000000     0          
O1203    O      0.459100000000     0.962300000000     0.544300000000     0          
H1204    H      0.441900000000     0.946200000000     0.562500000000     0          
O1205    O      0.541000000000     0.959000000000     0.541000000000     0          
H1206    H      0.558100000000     0.941900000000     0.558100000000     0          
C1207    C      0.908200000000     0.594700000000     0.502800000000     0          
C1208    C      0.878100000000     0.625500000000     0.513500000000     0          
C1209    C      0.889400000000     0.663800000000     0.527100000000     0          
H1210    H      0.916700000000     0.670200000000     0.530100000000     0          
C1211    C      0.861300000000     0.691300000000     0.535800000000     0          
C1212    C      0.820200000000     0.682600000000     0.530700000000     0          
C1213    C      0.810500000000     0.645000000000     0.516000000000     0          
H1214    H      0.783400000000     0.639500000000     0.510100000000     0          
C1215    C      0.838300000000     0.615300000000     0.509500000000     0          
H1216    H      0.830400000000     0.589100000000     0.502600000000     0          
C1217    C      0.791300000000     0.711900000000     0.537300000000     0          
C1218    C      0.764900000000     0.736200000000     0.539300000000     0          
O1219    O      0.867700000000     0.728500000000     0.550800000000     0          
C1220    C      0.907600000000     0.742700000000     0.555700000000     0          
H1221    H      0.921400000000     0.727000000000     0.576400000000     0          
H1222    H      0.922500000000     0.740000000000     0.530500000000     0          
C1223    C      0.905700000000     0.785200000000     0.567800000000     0          
C1224    C      0.882100000000     0.809900000000     0.536900000000     0          
H1225    H      0.854200000000     0.800500000000     0.536800000000     0          
H1226    H      0.882000000000     0.838000000000     0.545500000000     0          
C1227    C      0.871100000000     0.768600000000     0.463900000000     0          
H1228    H      0.883700000000     0.742700000000     0.468300000000     0          
H1229    H      0.844500000000     0.768600000000     0.475600000000     0          
H1230    H      0.869100000000     0.773600000000     0.435200000000     0          
C1231    C      0.948800000000     0.799600000000     0.572300000000     0          
H1232    H      0.961800000000     0.783300000000     0.593100000000     0          
H1233    H      0.962900000000     0.794300000000     0.547000000000     0          
C1234    C      0.964700000000     0.873400000000     0.535400000000     0          
H1235    H      0.988000000000     0.861000000000     0.523100000000     0          
H1236    H      0.941400000000     0.869200000000     0.518400000000     0          
H1237    H      0.969400000000     0.901900000000     0.538500000000     0          
C1238    C      0.882400000000     0.792600000000     0.606300000000     0          
H1239    H      0.880900000000     0.821600000000     0.610800000000     0          
H1240    H      0.854900000000     0.782700000000     0.602600000000     0          
C1241    C      0.870000000000     0.725800000000     0.655000000000     0          
H1242    H      0.877700000000     0.709800000000     0.678600000000     0          
H1243    H      0.872100000000     0.709500000000     0.631400000000     0          
H1244    H      0.842700000000     0.735000000000     0.658700000000     0          
C1245    C      0.095600000000     0.590000000000     0.507400000000     0          
C1246    C      0.116300000000     0.661300000000     0.513800000000     0          
H1247    H      0.089700000000     0.668200000000     0.507100000000     0          
C1248    C      0.143500000000     0.690100000000     0.519800000000     0          
C1249    C      0.235900000000     0.735200000000     0.544600000000     0          
O1250    O      0.135900000000     0.729800000000     0.516300000000     0          
C1251    C      0.104300000000     0.742000000000     0.490800000000     0          
H1252    H      0.107900000000     0.731000000000     0.463800000000     0          
H1253    H      0.078400000000     0.733000000000     0.501400000000     0          
C1254    C      0.106600000000     0.789100000000     0.490100000000     0          
C1255    C      0.142800000000     0.801700000000     0.473300000000     0          
H1256    H      0.143300000000     0.831100000000     0.474000000000     0          
H1257    H      0.164500000000     0.792300000000     0.490800000000     0          
S1258    S      0.154100000000     0.786800000000     0.425000000000     0          
C1259    C      0.201800000000     0.814100000000     0.427300000000     0          
H1260    H      0.216000000000     0.810900000000     0.402100000000     0          
H1261    H      0.218000000000     0.803400000000     0.449000000000     0          
H1262    H      0.196600000000     0.842300000000     0.432100000000     0          
C1263    C      0.075200000000     0.800700000000     0.462400000000     0          
H1264    H      0.079500000000     0.786500000000     0.437000000000     0          
H1265    H      0.049400000000     0.791700000000     0.473300000000     0          
C1266    C      0.021700000000     0.861700000000     0.430700000000     0          
H1267    H      0.018900000000     0.890100000000     0.424700000000     0          
H1268    H      0.001300000000     0.853800000000     0.449900000000     0          
H1269    H      0.018500000000     0.846300000000     0.406200000000     0          
C1270    C      0.100500000000     0.804300000000     0.532300000000     0          
H1271    H      0.123600000000     0.795600000000     0.548400000000     0          
H1272    H      0.100900000000     0.833700000000     0.531500000000     0          
C1273    C      0.073500000000     0.745300000000     0.585600000000     0          
H1274    H      0.101700000000     0.741200000000     0.579800000000     0          
H1275    H      0.070000000000     0.749700000000     0.614200000000     0          
H1276    H      0.058400000000     0.721700000000     0.577500000000     0          
O1277    O      0.945500000000     0.607800000000     0.502400000000     0          
O1278    O      0.896600000000     0.559900000000     0.499000000000     0          
O1279    O      0.060000000000     0.603600000000     0.504100000000     0          
O1280    O      0.106300000000     0.554500000000     0.504900000000     0          
S1281    S      0.901100000000     0.807400000000     0.486900000000     0          
S1282    S      0.955800000000     0.850740000000     0.584700000000     0          
S1283    S      0.903500000000     0.769000000000     0.651200000000     0          
S1284    S      0.071600000000     0.852300000000     0.452000000000     0          
S1285    S      0.055300000000     0.788800000000     0.558100000000     0          
Zr1286   Zr     0.001690000000     0.573460000000     0.501800000000     0          
Hg1287   Hg     0.157630000000     0.883760000000     0.610810000000     0          
Cl1288   Cl     0.197300000000     0.850700000000     0.560200000000     0          
Cl1289   Cl     0.118700000000     0.849200000000     0.656500000000     0          
C1290    C      0.125300000000     0.622700000000     0.510000000000     0          
C1291    C      0.184300000000     0.677400000000     0.516500000000     0          
C1292    C      0.192300000000     0.637600000000     0.523800000000     0          
H1293    H      0.218500000000     0.629800000000     0.531000000000     0          
C1294    C      0.162700000000     0.609000000000     0.520600000000     0          
H1295    H      0.167800000000     0.581600000000     0.525500000000     0          
C1296    C      0.214700000000     0.706100000000     0.519800000000     0          
O1297    O      0.040900000000     0.537700000000     0.544300000000     0          
H1298    H      0.058100000000     0.553800000000     0.562500000000     0          
O1299    O      0.959000000000     0.541000000000     0.541000000000     0          
H1300    H      0.941900000000     0.558100000000     0.558100000000     0          
C1301    C      0.591800000000     0.594700000000     0.997200000000     0          
C1302    C      0.621900000000     0.625500000000     0.986500000000     0          
C1303    C      0.610600000000     0.663800000000     0.972900000000     0          
H1304    H      0.583300000000     0.670200000000     0.969900000000     0          
C1305    C      0.638700000000     0.691300000000     0.964200000000     0          
C1306    C      0.679800000000     0.682600000000     0.969300000000     0          
C1307    C      0.689500000000     0.645000000000     0.984000000000     0          
H1308    H      0.716600000000     0.639500000000     0.989900000000     0          
C1309    C      0.661700000000     0.615300000000     0.990500000000     0          
H1310    H      0.669600000000     0.589100000000     0.997400000000     0          
C1311    C      0.708700000000     0.711900000000     0.962700000000     0          
C1312    C      0.735100000000     0.736200000000     0.960700000000     0          
O1313    O      0.632300000000     0.728500000000     0.949200000000     0          
C1314    C      0.592400000000     0.742700000000     0.944300000000     0          
H1315    H      0.578600000000     0.727000000000     0.923600000000     0          
H1316    H      0.577500000000     0.740000000000     0.969500000000     0          
C1317    C      0.594300000000     0.785200000000     0.932200000000     0          
C1318    C      0.617900000000     0.809900000000     0.963100000000     0          
H1319    H      0.645800000000     0.800500000000     0.963200000000     0          
H1320    H      0.618000000000     0.838000000000     0.954500000000     0          
C1321    C      0.628900000000     0.768600000000     0.036100000000     0          
H1322    H      0.616300000000     0.742700000000     0.031700000000     0          
H1323    H      0.655500000000     0.768600000000     0.024400000000     0          
H1324    H      0.630900000000     0.773600000000     0.064800000000     0          
C1325    C      0.551200000000     0.799600000000     0.927700000000     0          
H1326    H      0.538200000000     0.783300000000     0.906900000000     0          
H1327    H      0.537100000000     0.794300000000     0.953000000000     0          
C1328    C      0.535300000000     0.873400000000     0.964600000000     0          
H1329    H      0.512000000000     0.861000000000     0.976900000000     0          
H1330    H      0.558600000000     0.869200000000     0.981600000000     0          
H1331    H      0.530600000000     0.901900000000     0.961500000000     0          
C1332    C      0.617600000000     0.792600000000     0.893700000000     0          
H1333    H      0.619100000000     0.821600000000     0.889200000000     0          
H1334    H      0.645100000000     0.782700000000     0.897400000000     0          
C1335    C      0.630000000000     0.725800000000     0.845000000000     0          
H1336    H      0.622300000000     0.709800000000     0.821400000000     0          
H1337    H      0.627900000000     0.709500000000     0.868600000000     0          
H1338    H      0.657300000000     0.735000000000     0.841300000000     0          
C1339    C      0.404400000000     0.590000000000     0.992600000000     0          
C1340    C      0.383700000000     0.661300000000     0.986200000000     0          
H1341    H      0.410300000000     0.668200000000     0.992900000000     0          
C1342    C      0.356500000000     0.690100000000     0.980200000000     0          
C1343    C      0.264100000000     0.735200000000     0.955400000000     0          
O1344    O      0.364100000000     0.729800000000     0.983700000000     0          
C1345    C      0.395700000000     0.742000000000     0.009200000000     0          
H1346    H      0.421600000000     0.733000000000     0.998600000000     0          
C1347    C      0.393400000000     0.789100000000     0.009900000000     0          
C1348    C      0.357200000000     0.801700000000     0.026700000000     0          
H1349    H      0.356700000000     0.831100000000     0.026000000000     0          
H1350    H      0.335500000000     0.792300000000     0.009200000000     0          
S1351    S      0.345900000000     0.786800000000     0.075000000000     0          
C1352    C      0.298200000000     0.814100000000     0.072700000000     0          
H1353    H      0.284000000000     0.810900000000     0.097900000000     0          
H1354    H      0.282000000000     0.803400000000     0.051000000000     0          
H1355    H      0.303400000000     0.842300000000     0.067900000000     0          
C1356    C      0.424800000000     0.800700000000     0.037600000000     0          
H1357    H      0.420500000000     0.786500000000     0.063000000000     0          
H1358    H      0.450600000000     0.791700000000     0.026700000000     0          
C1359    C      0.478300000000     0.861700000000     0.069300000000     0          
H1360    H      0.481100000000     0.890100000000     0.075300000000     0          
H1361    H      0.498700000000     0.853800000000     0.050100000000     0          
H1362    H      0.481500000000     0.846300000000     0.093800000000     0          
C1363    C      0.399500000000     0.804300000000     0.967700000000     0          
H1364    H      0.376400000000     0.795600000000     0.951600000000     0          
H1365    H      0.399100000000     0.833700000000     0.968500000000     0          
C1366    C      0.426500000000     0.745300000000     0.914400000000     0          
H1367    H      0.398300000000     0.741200000000     0.920200000000     0          
H1368    H      0.430000000000     0.749700000000     0.885800000000     0          
H1369    H      0.441600000000     0.721700000000     0.922500000000     0          
O1370    O      0.554500000000     0.607800000000     0.997600000000     0          
O1371    O      0.603400000000     0.559900000000     0.001000000000     0          
O1372    O      0.440000000000     0.603600000000     0.995900000000     0          
O1373    O      0.393700000000     0.554500000000     0.995100000000     0          
S1374    S      0.598900000000     0.807400000000     0.013100000000     0          
S1375    S      0.544200000000     0.850740000000     0.915300000000     0          
S1376    S      0.596500000000     0.769000000000     0.848800000000     0          
S1377    S      0.428400000000     0.852300000000     0.048000000000     0          
S1378    S      0.444700000000     0.788800000000     0.941900000000     0          
Zr1379   Zr     0.498310000000     0.573460000000     0.998200000000     0          
Hg1380   Hg     0.342370000000     0.883760000000     0.889190000000     0          
Cl1381   Cl     0.302700000000     0.850700000000     0.939800000000     0          
Cl1382   Cl     0.381300000000     0.849200000000     0.843500000000     0          
C1383    C      0.374700000000     0.622700000000     0.990000000000     0          
C1384    C      0.315700000000     0.677400000000     0.983500000000     0          
C1385    C      0.307700000000     0.637600000000     0.976200000000     0          
H1386    H      0.281500000000     0.629800000000     0.969000000000     0          
C1387    C      0.337300000000     0.609000000000     0.979400000000     0          
H1388    H      0.332200000000     0.581600000000     0.974500000000     0          
C1389    C      0.285300000000     0.706100000000     0.980200000000     0          
H1390    H      0.404200000000     0.731500000000     0.035300000000     0          
O1391    O      0.459100000000     0.537700000000     0.955700000000     0          
H1392    H      0.441900000000     0.553800000000     0.937500000000     0          
O1393    O      0.541000000000     0.541000000000     0.959000000000     0          
H1394    H      0.558100000000     0.558100000000     0.941900000000     0          
C1395    C      0.908200000000     0.905300000000     0.997200000000     0          
C1396    C      0.878100000000     0.874500000000     0.986500000000     0          
C1397    C      0.889400000000     0.836200000000     0.972900000000     0          
H1398    H      0.916700000000     0.829800000000     0.969900000000     0          
C1399    C      0.861300000000     0.808700000000     0.964200000000     0          
C1400    C      0.820200000000     0.817400000000     0.969300000000     0          
C1401    C      0.810500000000     0.855000000000     0.984000000000     0          
H1402    H      0.783400000000     0.860500000000     0.989900000000     0          
C1403    C      0.838300000000     0.884700000000     0.990500000000     0          
H1404    H      0.830400000000     0.910900000000     0.997400000000     0          
C1405    C      0.791300000000     0.788100000000     0.962700000000     0          
C1406    C      0.764900000000     0.763800000000     0.960700000000     0          
O1407    O      0.867700000000     0.771500000000     0.949200000000     0          
C1408    C      0.907600000000     0.757300000000     0.944300000000     0          
H1409    H      0.921400000000     0.773000000000     0.923600000000     0          
H1410    H      0.922500000000     0.760000000000     0.969500000000     0          
C1411    C      0.905700000000     0.714800000000     0.932200000000     0          
C1412    C      0.882100000000     0.690100000000     0.963100000000     0          
H1413    H      0.854200000000     0.699500000000     0.963200000000     0          
H1414    H      0.882000000000     0.662000000000     0.954500000000     0          
C1415    C      0.871100000000     0.731400000000     0.036100000000     0          
H1416    H      0.883700000000     0.757300000000     0.031700000000     0          
H1417    H      0.844500000000     0.731400000000     0.024400000000     0          
H1418    H      0.869100000000     0.726400000000     0.064800000000     0          
C1419    C      0.948800000000     0.700400000000     0.927700000000     0          
H1420    H      0.961800000000     0.716700000000     0.906900000000     0          
H1421    H      0.962900000000     0.705700000000     0.953000000000     0          
C1422    C      0.964700000000     0.626600000000     0.964600000000     0          
H1423    H      0.988000000000     0.639000000000     0.976900000000     0          
H1424    H      0.941400000000     0.630800000000     0.981600000000     0          
H1425    H      0.969400000000     0.598100000000     0.961500000000     0          
C1426    C      0.882400000000     0.707400000000     0.893700000000     0          
H1427    H      0.880900000000     0.678400000000     0.889200000000     0          
H1428    H      0.854900000000     0.717300000000     0.897400000000     0          
C1429    C      0.870000000000     0.774200000000     0.845000000000     0          
H1430    H      0.877700000000     0.790200000000     0.821400000000     0          
H1431    H      0.872100000000     0.790500000000     0.868600000000     0          
H1432    H      0.842700000000     0.765000000000     0.841300000000     0          
C1433    C      0.095600000000     0.910000000000     0.992600000000     0          
C1434    C      0.116300000000     0.838700000000     0.986200000000     0          
H1435    H      0.089700000000     0.831800000000     0.992900000000     0          
C1436    C      0.143500000000     0.809900000000     0.980200000000     0          
C1437    C      0.235900000000     0.764800000000     0.955400000000     0          
O1438    O      0.135900000000     0.770200000000     0.983700000000     0          
C1439    C      0.104300000000     0.758000000000     0.009200000000     0          
C1440    C      0.106600000000     0.710900000000     0.009900000000     0          
C1441    C      0.142800000000     0.698300000000     0.026700000000     0          
H1442    H      0.143300000000     0.668900000000     0.026000000000     0          
H1443    H      0.164500000000     0.707700000000     0.009200000000     0          
S1444    S      0.154100000000     0.713200000000     0.075000000000     0          
C1445    C      0.201800000000     0.685900000000     0.072700000000     0          
H1446    H      0.216000000000     0.689100000000     0.097900000000     0          
H1447    H      0.218000000000     0.696600000000     0.051000000000     0          
H1448    H      0.196600000000     0.657700000000     0.067900000000     0          
C1449    C      0.075200000000     0.699300000000     0.037600000000     0          
H1450    H      0.079500000000     0.713500000000     0.063000000000     0          
H1451    H      0.049400000000     0.708300000000     0.026700000000     0          
C1452    C      0.021700000000     0.638300000000     0.069300000000     0          
H1453    H      0.018900000000     0.609900000000     0.075300000000     0          
H1454    H      0.001300000000     0.646200000000     0.050100000000     0          
H1455    H      0.018500000000     0.653700000000     0.093800000000     0          
C1456    C      0.100500000000     0.695700000000     0.967700000000     0          
H1457    H      0.123600000000     0.704400000000     0.951600000000     0          
H1458    H      0.100900000000     0.666300000000     0.968500000000     0          
C1459    C      0.073500000000     0.754700000000     0.914400000000     0          
H1460    H      0.101700000000     0.758800000000     0.920200000000     0          
H1461    H      0.070000000000     0.750300000000     0.885800000000     0          
H1462    H      0.058400000000     0.778300000000     0.922500000000     0          
O1463    O      0.945500000000     0.892200000000     0.997600000000     0          
O1464    O      0.896600000000     0.940100000000     0.001000000000     0          
O1465    O      0.060000000000     0.896400000000     0.995900000000     0          
O1466    O      0.106300000000     0.945500000000     0.995100000000     0          
S1467    S      0.901100000000     0.692600000000     0.013100000000     0          
S1468    S      0.955800000000     0.649260000000     0.915300000000     0          
S1469    S      0.903500000000     0.731000000000     0.848800000000     0          
S1470    S      0.071600000000     0.647700000000     0.048000000000     0          
S1471    S      0.055300000000     0.711200000000     0.941900000000     0          
Zr1472   Zr     0.001690000000     0.926540000000     0.998200000000     0          
Hg1473   Hg     0.157630000000     0.616240000000     0.889190000000     0          
Cl1474   Cl     0.197300000000     0.649300000000     0.939800000000     0          
Cl1475   Cl     0.118700000000     0.650800000000     0.843500000000     0          
C1476    C      0.125300000000     0.877300000000     0.990000000000     0          
C1477    C      0.184300000000     0.822600000000     0.983500000000     0          
C1478    C      0.192300000000     0.862400000000     0.976200000000     0          
H1479    H      0.218500000000     0.870200000000     0.969000000000     0          
C1480    C      0.162700000000     0.891000000000     0.979400000000     0          
H1481    H      0.167800000000     0.918400000000     0.974500000000     0          
C1482    C      0.214700000000     0.793900000000     0.980200000000     0          
H1483    H      0.095800000000     0.768500000000     0.035300000000     0          
H1484    H      0.085500000000     0.767300000000     0.988500000000     0          
O1485    O      0.040900000000     0.962300000000     0.955700000000     0          
H1486    H      0.058100000000     0.946200000000     0.937500000000     0          
O1487    O      0.959000000000     0.959000000000     0.959000000000     0          
H1488    H      0.941900000000     0.941900000000     0.941900000000     0          
C1489    C      0.502800000000     0.591800000000     0.905300000000     0          
C1490    C      0.513500000000     0.621900000000     0.874500000000     0          
C1491    C      0.527100000000     0.610600000000     0.836200000000     0          
H1492    H      0.530100000000     0.583300000000     0.829800000000     0          
C1493    C      0.535800000000     0.638700000000     0.808700000000     0          
C1494    C      0.530700000000     0.679800000000     0.817400000000     0          
C1495    C      0.516000000000     0.689500000000     0.855000000000     0          
H1496    H      0.510100000000     0.716600000000     0.860500000000     0          
C1497    C      0.509500000000     0.661700000000     0.884700000000     0          
H1498    H      0.502600000000     0.669600000000     0.910900000000     0          
C1499    C      0.537300000000     0.708700000000     0.788100000000     0          
C1500    C      0.539300000000     0.735100000000     0.763800000000     0          
O1501    O      0.550800000000     0.632300000000     0.771500000000     0          
C1502    C      0.555700000000     0.592400000000     0.757300000000     0          
H1503    H      0.576400000000     0.578600000000     0.773000000000     0          
H1504    H      0.530500000000     0.577500000000     0.760000000000     0          
C1505    C      0.567800000000     0.594300000000     0.714800000000     0          
C1506    C      0.536900000000     0.617900000000     0.690100000000     0          
H1507    H      0.536800000000     0.645800000000     0.699500000000     0          
H1508    H      0.545500000000     0.618000000000     0.662000000000     0          
C1509    C      0.463900000000     0.628900000000     0.731400000000     0          
H1510    H      0.468300000000     0.616300000000     0.757300000000     0          
H1511    H      0.475600000000     0.655500000000     0.731400000000     0          
H1512    H      0.435200000000     0.630900000000     0.726400000000     0          
C1513    C      0.572300000000     0.551200000000     0.700400000000     0          
H1514    H      0.593100000000     0.538200000000     0.716700000000     0          
H1515    H      0.547000000000     0.537100000000     0.705700000000     0          
C1516    C      0.535400000000     0.535300000000     0.626600000000     0          
H1517    H      0.523100000000     0.512000000000     0.639000000000     0          
H1518    H      0.518400000000     0.558600000000     0.630800000000     0          
H1519    H      0.538500000000     0.530600000000     0.598100000000     0          
C1520    C      0.606300000000     0.617600000000     0.707400000000     0          
H1521    H      0.610800000000     0.619100000000     0.678400000000     0          
H1522    H      0.602600000000     0.645100000000     0.717300000000     0          
C1523    C      0.655000000000     0.630000000000     0.774200000000     0          
H1524    H      0.678600000000     0.622300000000     0.790200000000     0          
H1525    H      0.631400000000     0.627900000000     0.790500000000     0          
H1526    H      0.658700000000     0.657300000000     0.765000000000     0          
C1527    C      0.507400000000     0.404400000000     0.910000000000     0          
C1528    C      0.513800000000     0.383700000000     0.838700000000     0          
H1529    H      0.507100000000     0.410300000000     0.831800000000     0          
C1530    C      0.519800000000     0.356500000000     0.809900000000     0          
C1531    C      0.544600000000     0.264100000000     0.764800000000     0          
O1532    O      0.516300000000     0.364100000000     0.770200000000     0          
C1533    C      0.490800000000     0.395700000000     0.758000000000     0          
C1534    C      0.490100000000     0.393400000000     0.710900000000     0          
C1535    C      0.473300000000     0.357200000000     0.698300000000     0          
H1536    H      0.474000000000     0.356700000000     0.668900000000     0          
H1537    H      0.490800000000     0.335500000000     0.707700000000     0          
S1538    S      0.425000000000     0.345900000000     0.713200000000     0          
C1539    C      0.427300000000     0.298200000000     0.685900000000     0          
H1540    H      0.402100000000     0.284000000000     0.689100000000     0          
H1541    H      0.449000000000     0.282000000000     0.696600000000     0          
H1542    H      0.432100000000     0.303400000000     0.657700000000     0          
C1543    C      0.462400000000     0.424800000000     0.699300000000     0          
H1544    H      0.437000000000     0.420500000000     0.713500000000     0          
H1545    H      0.473300000000     0.450600000000     0.708300000000     0          
C1546    C      0.430700000000     0.478300000000     0.638300000000     0          
H1547    H      0.424700000000     0.481100000000     0.609900000000     0          
H1548    H      0.449900000000     0.498700000000     0.646200000000     0          
H1549    H      0.406200000000     0.481500000000     0.653700000000     0          
C1550    C      0.532300000000     0.399500000000     0.695700000000     0          
H1551    H      0.548400000000     0.376400000000     0.704400000000     0          
H1552    H      0.531500000000     0.399100000000     0.666300000000     0          
C1553    C      0.585600000000     0.426500000000     0.754700000000     0          
H1554    H      0.579800000000     0.398300000000     0.758800000000     0          
H1555    H      0.614200000000     0.430000000000     0.750300000000     0          
H1556    H      0.577500000000     0.441600000000     0.778300000000     0          
O1557    O      0.502400000000     0.554500000000     0.892200000000     0          
O1558    O      0.499000000000     0.603400000000     0.940100000000     0          
O1559    O      0.504100000000     0.440000000000     0.896400000000     0          
O1560    O      0.504900000000     0.393700000000     0.945500000000     0          
S1561    S      0.486900000000     0.598900000000     0.692600000000     0          
S1562    S      0.584700000000     0.544200000000     0.649260000000     0          
S1563    S      0.651200000000     0.596500000000     0.731000000000     0          
S1564    S      0.452000000000     0.428400000000     0.647700000000     0          
S1565    S      0.558100000000     0.444700000000     0.711200000000     0          
Zr1566   Zr     0.501800000000     0.498310000000     0.926540000000     0          
Hg1567   Hg     0.610810000000     0.342370000000     0.616240000000     0          
Cl1568   Cl     0.560200000000     0.302700000000     0.649300000000     0          
Cl1569   Cl     0.656500000000     0.381300000000     0.650800000000     0          
C1570    C      0.510000000000     0.374700000000     0.877300000000     0          
C1571    C      0.516500000000     0.315700000000     0.822600000000     0          
C1572    C      0.523800000000     0.307700000000     0.862400000000     0          
H1573    H      0.531000000000     0.281500000000     0.870200000000     0          
C1574    C      0.520600000000     0.337300000000     0.891000000000     0          
H1575    H      0.525500000000     0.332200000000     0.918400000000     0          
C1576    C      0.519800000000     0.285300000000     0.793900000000     0          
H1577    H      0.464700000000     0.404200000000     0.768500000000     0          
H1578    H      0.511500000000     0.414500000000     0.767300000000     0          
O1579    O      0.544300000000     0.459100000000     0.962300000000     0          
H1580    H      0.562500000000     0.441900000000     0.946200000000     0          
C1581    C      0.997200000000     0.908200000000     0.905300000000     0          
C1582    C      0.986500000000     0.878100000000     0.874500000000     0          
C1583    C      0.972900000000     0.889400000000     0.836200000000     0          
H1584    H      0.969900000000     0.916700000000     0.829800000000     0          
C1585    C      0.964200000000     0.861300000000     0.808700000000     0          
C1586    C      0.969300000000     0.820200000000     0.817400000000     0          
C1587    C      0.984000000000     0.810500000000     0.855000000000     0          
H1588    H      0.989900000000     0.783400000000     0.860500000000     0          
C1589    C      0.990500000000     0.838300000000     0.884700000000     0          
H1590    H      0.997400000000     0.830400000000     0.910900000000     0          
C1591    C      0.962700000000     0.791300000000     0.788100000000     0          
C1592    C      0.960700000000     0.764900000000     0.763800000000     0          
O1593    O      0.949200000000     0.867700000000     0.771500000000     0          
C1594    C      0.944300000000     0.907600000000     0.757300000000     0          
H1595    H      0.923600000000     0.921400000000     0.773000000000     0          
H1596    H      0.969500000000     0.922500000000     0.760000000000     0          
C1597    C      0.932200000000     0.905700000000     0.714800000000     0          
C1598    C      0.963100000000     0.882100000000     0.690100000000     0          
H1599    H      0.963200000000     0.854200000000     0.699500000000     0          
H1600    H      0.954500000000     0.882000000000     0.662000000000     0          
C1601    C      0.036100000000     0.871100000000     0.731400000000     0          
H1602    H      0.031700000000     0.883700000000     0.757300000000     0          
H1603    H      0.024400000000     0.844500000000     0.731400000000     0          
H1604    H      0.064800000000     0.869100000000     0.726400000000     0          
C1605    C      0.927700000000     0.948800000000     0.700400000000     0          
H1606    H      0.906900000000     0.961800000000     0.716700000000     0          
H1607    H      0.953000000000     0.962900000000     0.705700000000     0          
C1608    C      0.964600000000     0.964700000000     0.626600000000     0          
H1609    H      0.976900000000     0.988000000000     0.639000000000     0          
H1610    H      0.981600000000     0.941400000000     0.630800000000     0          
H1611    H      0.961500000000     0.969400000000     0.598100000000     0          
C1612    C      0.893700000000     0.882400000000     0.707400000000     0          
H1613    H      0.889200000000     0.880900000000     0.678400000000     0          
H1614    H      0.897400000000     0.854900000000     0.717300000000     0          
C1615    C      0.845000000000     0.870000000000     0.774200000000     0          
H1616    H      0.821400000000     0.877700000000     0.790200000000     0          
H1617    H      0.868600000000     0.872100000000     0.790500000000     0          
H1618    H      0.841300000000     0.842700000000     0.765000000000     0          
C1619    C      0.992600000000     0.095600000000     0.910000000000     0          
C1620    C      0.986200000000     0.116300000000     0.838700000000     0          
H1621    H      0.992900000000     0.089700000000     0.831800000000     0          
C1622    C      0.980200000000     0.143500000000     0.809900000000     0          
C1623    C      0.955400000000     0.235900000000     0.764800000000     0          
O1624    O      0.983700000000     0.135900000000     0.770200000000     0          
C1625    C      0.009200000000     0.104300000000     0.758000000000     0          
C1626    C      0.009900000000     0.106600000000     0.710900000000     0          
C1627    C      0.026700000000     0.142800000000     0.698300000000     0          
H1628    H      0.026000000000     0.143300000000     0.668900000000     0          
H1629    H      0.009200000000     0.164500000000     0.707700000000     0          
S1630    S      0.075000000000     0.154100000000     0.713200000000     0          
C1631    C      0.072700000000     0.201800000000     0.685900000000     0          
H1632    H      0.097900000000     0.216000000000     0.689100000000     0          
H1633    H      0.051000000000     0.218000000000     0.696600000000     0          
H1634    H      0.067900000000     0.196600000000     0.657700000000     0          
C1635    C      0.037600000000     0.075200000000     0.699300000000     0          
H1636    H      0.063000000000     0.079500000000     0.713500000000     0          
H1637    H      0.026700000000     0.049400000000     0.708300000000     0          
C1638    C      0.069300000000     0.021700000000     0.638300000000     0          
H1639    H      0.075300000000     0.018900000000     0.609900000000     0          
H1640    H      0.050100000000     0.001300000000     0.646200000000     0          
H1641    H      0.093800000000     0.018500000000     0.653700000000     0          
C1642    C      0.967700000000     0.100500000000     0.695700000000     0          
H1643    H      0.951600000000     0.123600000000     0.704400000000     0          
H1644    H      0.968500000000     0.100900000000     0.666300000000     0          
C1645    C      0.914400000000     0.073500000000     0.754700000000     0          
H1646    H      0.920200000000     0.101700000000     0.758800000000     0          
H1647    H      0.885800000000     0.070000000000     0.750300000000     0          
H1648    H      0.922500000000     0.058400000000     0.778300000000     0          
O1649    O      0.997600000000     0.945500000000     0.892200000000     0          
O1650    O      0.001000000000     0.896600000000     0.940100000000     0          
O1651    O      0.995900000000     0.060000000000     0.896400000000     0          
O1652    O      0.995100000000     0.106300000000     0.945500000000     0          
S1653    S      0.013100000000     0.901100000000     0.692600000000     0          
S1654    S      0.915300000000     0.955800000000     0.649260000000     0          
S1655    S      0.848800000000     0.903500000000     0.731000000000     0          
S1656    S      0.048000000000     0.071600000000     0.647700000000     0          
S1657    S      0.941900000000     0.055300000000     0.711200000000     0          
Zr1658   Zr     0.998200000000     0.001690000000     0.926540000000     0          
Hg1659   Hg     0.889190000000     0.157630000000     0.616240000000     0          
Cl1660   Cl     0.939800000000     0.197300000000     0.649300000000     0          
Cl1661   Cl     0.843500000000     0.118700000000     0.650800000000     0          
C1662    C      0.990000000000     0.125300000000     0.877300000000     0          
C1663    C      0.983500000000     0.184300000000     0.822600000000     0          
C1664    C      0.976200000000     0.192300000000     0.862400000000     0          
H1665    H      0.969000000000     0.218500000000     0.870200000000     0          
C1666    C      0.979400000000     0.162700000000     0.891000000000     0          
H1667    H      0.974500000000     0.167800000000     0.918400000000     0          
C1668    C      0.980200000000     0.214700000000     0.793900000000     0          
H1669    H      0.035300000000     0.095800000000     0.768500000000     0          
H1670    H      0.988500000000     0.085500000000     0.767300000000     0          
O1671    O      0.955700000000     0.040900000000     0.962300000000     0          
H1672    H      0.937500000000     0.058100000000     0.946200000000     0          
C1673    C      0.502800000000     0.908200000000     0.594700000000     0          
C1674    C      0.513500000000     0.878100000000     0.625500000000     0          
C1675    C      0.527100000000     0.889400000000     0.663800000000     0          
H1676    H      0.530100000000     0.916700000000     0.670200000000     0          
C1677    C      0.535800000000     0.861300000000     0.691300000000     0          
C1678    C      0.530700000000     0.820200000000     0.682600000000     0          
C1679    C      0.516000000000     0.810500000000     0.645000000000     0          
H1680    H      0.510100000000     0.783400000000     0.639500000000     0          
C1681    C      0.509500000000     0.838300000000     0.615300000000     0          
H1682    H      0.502600000000     0.830400000000     0.589100000000     0          
C1683    C      0.537300000000     0.791300000000     0.711900000000     0          
C1684    C      0.539300000000     0.764900000000     0.736200000000     0          
O1685    O      0.550800000000     0.867700000000     0.728500000000     0          
C1686    C      0.555700000000     0.907600000000     0.742700000000     0          
H1687    H      0.576400000000     0.921400000000     0.727000000000     0          
H1688    H      0.530500000000     0.922500000000     0.740000000000     0          
C1689    C      0.567800000000     0.905700000000     0.785200000000     0          
C1690    C      0.536900000000     0.882100000000     0.809900000000     0          
H1691    H      0.536800000000     0.854200000000     0.800500000000     0          
H1692    H      0.545500000000     0.882000000000     0.838000000000     0          
C1693    C      0.463900000000     0.871100000000     0.768600000000     0          
H1694    H      0.468300000000     0.883700000000     0.742700000000     0          
H1695    H      0.475600000000     0.844500000000     0.768600000000     0          
H1696    H      0.435200000000     0.869100000000     0.773600000000     0          
C1697    C      0.572300000000     0.948800000000     0.799600000000     0          
H1698    H      0.593100000000     0.961800000000     0.783300000000     0          
H1699    H      0.547000000000     0.962900000000     0.794300000000     0          
C1700    C      0.535400000000     0.964700000000     0.873400000000     0          
H1701    H      0.523100000000     0.988000000000     0.861000000000     0          
H1702    H      0.518400000000     0.941400000000     0.869200000000     0          
H1703    H      0.538500000000     0.969400000000     0.901900000000     0          
C1704    C      0.606300000000     0.882400000000     0.792600000000     0          
H1705    H      0.610800000000     0.880900000000     0.821600000000     0          
H1706    H      0.602600000000     0.854900000000     0.782700000000     0          
C1707    C      0.655000000000     0.870000000000     0.725800000000     0          
H1708    H      0.678600000000     0.877700000000     0.709800000000     0          
H1709    H      0.631400000000     0.872100000000     0.709500000000     0          
H1710    H      0.658700000000     0.842700000000     0.735000000000     0          
C1711    C      0.507400000000     0.095600000000     0.590000000000     0          
C1712    C      0.513800000000     0.116300000000     0.661300000000     0          
H1713    H      0.507100000000     0.089700000000     0.668200000000     0          
C1714    C      0.519800000000     0.143500000000     0.690100000000     0          
C1715    C      0.544600000000     0.235900000000     0.735200000000     0          
O1716    O      0.516300000000     0.135900000000     0.729800000000     0          
C1717    C      0.490800000000     0.104300000000     0.742000000000     0          
C1718    C      0.490100000000     0.106600000000     0.789100000000     0          
C1719    C      0.473300000000     0.142800000000     0.801700000000     0          
H1720    H      0.474000000000     0.143300000000     0.831100000000     0          
H1721    H      0.490800000000     0.164500000000     0.792300000000     0          
S1722    S      0.425000000000     0.154100000000     0.786800000000     0          
C1723    C      0.427300000000     0.201800000000     0.814100000000     0          
H1724    H      0.402100000000     0.216000000000     0.810900000000     0          
H1725    H      0.449000000000     0.218000000000     0.803400000000     0          
H1726    H      0.432100000000     0.196600000000     0.842300000000     0          
C1727    C      0.462400000000     0.075200000000     0.800700000000     0          
H1728    H      0.437000000000     0.079500000000     0.786500000000     0          
H1729    H      0.473300000000     0.049400000000     0.791700000000     0          
C1730    C      0.430700000000     0.021700000000     0.861700000000     0          
H1731    H      0.424700000000     0.018900000000     0.890100000000     0          
H1732    H      0.449900000000     0.001300000000     0.853800000000     0          
H1733    H      0.406200000000     0.018500000000     0.846300000000     0          
C1734    C      0.532300000000     0.100500000000     0.804300000000     0          
H1735    H      0.548400000000     0.123600000000     0.795600000000     0          
H1736    H      0.531500000000     0.100900000000     0.833700000000     0          
C1737    C      0.585600000000     0.073500000000     0.745300000000     0          
H1738    H      0.579800000000     0.101700000000     0.741200000000     0          
H1739    H      0.614200000000     0.070000000000     0.749700000000     0          
H1740    H      0.577500000000     0.058400000000     0.721700000000     0          
O1741    O      0.502400000000     0.945500000000     0.607800000000     0          
O1742    O      0.499000000000     0.896600000000     0.559900000000     0          
O1743    O      0.504100000000     0.060000000000     0.603600000000     0          
O1744    O      0.504900000000     0.106300000000     0.554500000000     0          
S1745    S      0.486900000000     0.901100000000     0.807400000000     0          
S1746    S      0.584700000000     0.955800000000     0.850740000000     0          
S1747    S      0.651200000000     0.903500000000     0.769000000000     0          
S1748    S      0.452000000000     0.071600000000     0.852300000000     0          
S1749    S      0.558100000000     0.055300000000     0.788800000000     0          
Zr1750   Zr     0.501800000000     0.001690000000     0.573460000000     0          
Hg1751   Hg     0.610810000000     0.157630000000     0.883760000000     0          
Cl1752   Cl     0.560200000000     0.197300000000     0.850700000000     0          
Cl1753   Cl     0.656500000000     0.118700000000     0.849200000000     0          
C1754    C      0.510000000000     0.125300000000     0.622700000000     0          
C1755    C      0.516500000000     0.184300000000     0.677400000000     0          
C1756    C      0.523800000000     0.192300000000     0.637600000000     0          
H1757    H      0.531000000000     0.218500000000     0.629800000000     0          
C1758    C      0.520600000000     0.162700000000     0.609000000000     0          
H1759    H      0.525500000000     0.167800000000     0.581600000000     0          
C1760    C      0.519800000000     0.214700000000     0.706100000000     0          
H1761    H      0.464700000000     0.095800000000     0.731500000000     0          
H1762    H      0.511500000000     0.085500000000     0.732700000000     0          
O1763    O      0.544300000000     0.040900000000     0.537700000000     0          
H1764    H      0.562500000000     0.058100000000     0.553800000000     0          
C1765    C      0.997200000000     0.591800000000     0.594700000000     0          
C1766    C      0.986500000000     0.621900000000     0.625500000000     0          
C1767    C      0.972900000000     0.610600000000     0.663800000000     0          
H1768    H      0.969900000000     0.583300000000     0.670200000000     0          
C1769    C      0.964200000000     0.638700000000     0.691300000000     0          
C1770    C      0.969300000000     0.679800000000     0.682600000000     0          
C1771    C      0.984000000000     0.689500000000     0.645000000000     0          
H1772    H      0.989900000000     0.716600000000     0.639500000000     0          
C1773    C      0.990500000000     0.661700000000     0.615300000000     0          
H1774    H      0.997400000000     0.669600000000     0.589100000000     0          
C1775    C      0.962700000000     0.708700000000     0.711900000000     0          
C1776    C      0.960700000000     0.735100000000     0.736200000000     0          
O1777    O      0.949200000000     0.632300000000     0.728500000000     0          
C1778    C      0.944300000000     0.592400000000     0.742700000000     0          
H1779    H      0.923600000000     0.578600000000     0.727000000000     0          
H1780    H      0.969500000000     0.577500000000     0.740000000000     0          
C1781    C      0.932200000000     0.594300000000     0.785200000000     0          
C1782    C      0.963100000000     0.617900000000     0.809900000000     0          
H1783    H      0.963200000000     0.645800000000     0.800500000000     0          
H1784    H      0.954500000000     0.618000000000     0.838000000000     0          
C1785    C      0.036100000000     0.628900000000     0.768600000000     0          
H1786    H      0.031700000000     0.616300000000     0.742700000000     0          
H1787    H      0.024400000000     0.655500000000     0.768600000000     0          
H1788    H      0.064800000000     0.630900000000     0.773600000000     0          
C1789    C      0.927700000000     0.551200000000     0.799600000000     0          
H1790    H      0.906900000000     0.538200000000     0.783300000000     0          
H1791    H      0.953000000000     0.537100000000     0.794300000000     0          
C1792    C      0.964600000000     0.535300000000     0.873400000000     0          
H1793    H      0.976900000000     0.512000000000     0.861000000000     0          
H1794    H      0.981600000000     0.558600000000     0.869200000000     0          
H1795    H      0.961500000000     0.530600000000     0.901900000000     0          
C1796    C      0.893700000000     0.617600000000     0.792600000000     0          
H1797    H      0.889200000000     0.619100000000     0.821600000000     0          
H1798    H      0.897400000000     0.645100000000     0.782700000000     0          
C1799    C      0.845000000000     0.630000000000     0.725800000000     0          
H1800    H      0.821400000000     0.622300000000     0.709800000000     0          
H1801    H      0.868600000000     0.627900000000     0.709500000000     0          
H1802    H      0.841300000000     0.657300000000     0.735000000000     0          
C1803    C      0.992600000000     0.404400000000     0.590000000000     0          
C1804    C      0.986200000000     0.383700000000     0.661300000000     0          
H1805    H      0.992900000000     0.410300000000     0.668200000000     0          
C1806    C      0.980200000000     0.356500000000     0.690100000000     0          
C1807    C      0.955400000000     0.264100000000     0.735200000000     0          
O1808    O      0.983700000000     0.364100000000     0.729800000000     0          
C1809    C      0.009200000000     0.395700000000     0.742000000000     0          
H1810    H      0.036200000000     0.392100000000     0.731000000000     0          
H1811    H      0.998600000000     0.421600000000     0.733000000000     0          
C1812    C      0.009900000000     0.393400000000     0.789100000000     0          
C1813    C      0.026700000000     0.357200000000     0.801700000000     0          
H1814    H      0.026000000000     0.356700000000     0.831100000000     0          
H1815    H      0.009200000000     0.335500000000     0.792300000000     0          
S1816    S      0.075000000000     0.345900000000     0.786800000000     0          
C1817    C      0.072700000000     0.298200000000     0.814100000000     0          
H1818    H      0.097900000000     0.284000000000     0.810900000000     0          
H1819    H      0.051000000000     0.282000000000     0.803400000000     0          
H1820    H      0.067900000000     0.303400000000     0.842300000000     0          
C1821    C      0.037600000000     0.424800000000     0.800700000000     0          
H1822    H      0.063000000000     0.420500000000     0.786500000000     0          
H1823    H      0.026700000000     0.450600000000     0.791700000000     0          
C1824    C      0.069300000000     0.478300000000     0.861700000000     0          
H1825    H      0.075300000000     0.481100000000     0.890100000000     0          
H1826    H      0.050100000000     0.498700000000     0.853800000000     0          
H1827    H      0.093800000000     0.481500000000     0.846300000000     0          
C1828    C      0.967700000000     0.399500000000     0.804300000000     0          
H1829    H      0.951600000000     0.376400000000     0.795600000000     0          
H1830    H      0.968500000000     0.399100000000     0.833700000000     0          
C1831    C      0.914400000000     0.426500000000     0.745300000000     0          
H1832    H      0.920200000000     0.398300000000     0.741200000000     0          
H1833    H      0.885800000000     0.430000000000     0.749700000000     0          
H1834    H      0.922500000000     0.441600000000     0.721700000000     0          
O1835    O      0.997600000000     0.554500000000     0.607800000000     0          
O1836    O      0.001000000000     0.603400000000     0.559900000000     0          
O1837    O      0.995900000000     0.440000000000     0.603600000000     0          
O1838    O      0.995100000000     0.393700000000     0.554500000000     0          
S1839    S      0.013100000000     0.598900000000     0.807400000000     0          
S1840    S      0.915300000000     0.544200000000     0.850740000000     0          
S1841    S      0.848800000000     0.596500000000     0.769000000000     0          
S1842    S      0.048000000000     0.428400000000     0.852300000000     0          
S1843    S      0.941900000000     0.444700000000     0.788800000000     0          
Zr1844   Zr     0.998200000000     0.498310000000     0.573460000000     0          
Hg1845   Hg     0.889190000000     0.342370000000     0.883760000000     0          
Cl1846   Cl     0.939800000000     0.302700000000     0.850700000000     0          
Cl1847   Cl     0.843500000000     0.381300000000     0.849200000000     0          
C1848    C      0.990000000000     0.374700000000     0.622700000000     0          
C1849    C      0.983500000000     0.315700000000     0.677400000000     0          
C1850    C      0.976200000000     0.307700000000     0.637600000000     0          
H1851    H      0.969000000000     0.281500000000     0.629800000000     0          
C1852    C      0.979400000000     0.337300000000     0.609000000000     0          
H1853    H      0.974500000000     0.332200000000     0.581600000000     0          
C1854    C      0.980200000000     0.285300000000     0.706100000000     0          
O1855    O      0.955700000000     0.459100000000     0.537700000000     0          
H1856    H      0.937500000000     0.441900000000     0.553800000000     0          
C1857    C      0.905300000000     0.502800000000     0.591800000000     0          
C1858    C      0.874500000000     0.513500000000     0.621900000000     0          
C1859    C      0.836200000000     0.527100000000     0.610600000000     0          
H1860    H      0.829800000000     0.530100000000     0.583300000000     0          
C1861    C      0.808700000000     0.535800000000     0.638700000000     0          
C1862    C      0.817400000000     0.530700000000     0.679800000000     0          
C1863    C      0.855000000000     0.516000000000     0.689500000000     0          
H1864    H      0.860500000000     0.510100000000     0.716600000000     0          
C1865    C      0.884700000000     0.509500000000     0.661700000000     0          
H1866    H      0.910900000000     0.502600000000     0.669600000000     0          
C1867    C      0.788100000000     0.537300000000     0.708700000000     0          
C1868    C      0.763800000000     0.539300000000     0.735100000000     0          
O1869    O      0.771500000000     0.550800000000     0.632300000000     0          
C1870    C      0.757300000000     0.555700000000     0.592400000000     0          
H1871    H      0.773000000000     0.576400000000     0.578600000000     0          
H1872    H      0.760000000000     0.530500000000     0.577500000000     0          
C1873    C      0.714800000000     0.567800000000     0.594300000000     0          
C1874    C      0.690100000000     0.536900000000     0.617900000000     0          
H1875    H      0.699500000000     0.536800000000     0.645800000000     0          
H1876    H      0.662000000000     0.545500000000     0.618000000000     0          
C1877    C      0.731400000000     0.463900000000     0.628900000000     0          
H1878    H      0.757300000000     0.468300000000     0.616300000000     0          
H1879    H      0.731400000000     0.475600000000     0.655500000000     0          
H1880    H      0.726400000000     0.435200000000     0.630900000000     0          
C1881    C      0.700400000000     0.572300000000     0.551200000000     0          
H1882    H      0.716700000000     0.593100000000     0.538200000000     0          
H1883    H      0.705700000000     0.547000000000     0.537100000000     0          
C1884    C      0.626600000000     0.535400000000     0.535300000000     0          
H1885    H      0.639000000000     0.523100000000     0.512000000000     0          
H1886    H      0.630800000000     0.518400000000     0.558600000000     0          
H1887    H      0.598100000000     0.538500000000     0.530600000000     0          
C1888    C      0.707400000000     0.606300000000     0.617600000000     0          
H1889    H      0.678400000000     0.610800000000     0.619100000000     0          
H1890    H      0.717300000000     0.602600000000     0.645100000000     0          
C1891    C      0.774200000000     0.655000000000     0.630000000000     0          
H1892    H      0.790200000000     0.678600000000     0.622300000000     0          
H1893    H      0.790500000000     0.631400000000     0.627900000000     0          
H1894    H      0.765000000000     0.658700000000     0.657300000000     0          
C1895    C      0.910000000000     0.507400000000     0.404400000000     0          
C1896    C      0.838700000000     0.513800000000     0.383700000000     0          
H1897    H      0.831800000000     0.507100000000     0.410300000000     0          
C1898    C      0.809900000000     0.519800000000     0.356500000000     0          
C1899    C      0.764800000000     0.544600000000     0.264100000000     0          
O1900    O      0.770200000000     0.516300000000     0.364100000000     0          
C1901    C      0.758000000000     0.490800000000     0.395700000000     0          
C1902    C      0.710900000000     0.490100000000     0.393400000000     0          
C1903    C      0.698300000000     0.473300000000     0.357200000000     0          
H1904    H      0.668900000000     0.474000000000     0.356700000000     0          
H1905    H      0.707700000000     0.490800000000     0.335500000000     0          
S1906    S      0.713200000000     0.425000000000     0.345900000000     0          
C1907    C      0.685900000000     0.427300000000     0.298200000000     0          
H1908    H      0.689100000000     0.402100000000     0.284000000000     0          
H1909    H      0.696600000000     0.449000000000     0.282000000000     0          
H1910    H      0.657700000000     0.432100000000     0.303400000000     0          
C1911    C      0.699300000000     0.462400000000     0.424800000000     0          
H1912    H      0.713500000000     0.437000000000     0.420500000000     0          
H1913    H      0.708300000000     0.473300000000     0.450600000000     0          
C1914    C      0.638300000000     0.430700000000     0.478300000000     0          
H1915    H      0.609900000000     0.424700000000     0.481100000000     0          
H1916    H      0.646200000000     0.449900000000     0.498700000000     0          
H1917    H      0.653700000000     0.406200000000     0.481500000000     0          
C1918    C      0.695700000000     0.532300000000     0.399500000000     0          
H1919    H      0.704400000000     0.548400000000     0.376400000000     0          
H1920    H      0.666300000000     0.531500000000     0.399100000000     0          
C1921    C      0.754700000000     0.585600000000     0.426500000000     0          
H1922    H      0.758800000000     0.579800000000     0.398300000000     0          
H1923    H      0.750300000000     0.614200000000     0.430000000000     0          
H1924    H      0.778300000000     0.577500000000     0.441600000000     0          
O1925    O      0.892200000000     0.502400000000     0.554500000000     0          
O1926    O      0.940100000000     0.499000000000     0.603400000000     0          
O1927    O      0.896400000000     0.504100000000     0.440000000000     0          
O1928    O      0.945500000000     0.504900000000     0.393700000000     0          
S1929    S      0.692600000000     0.486900000000     0.598900000000     0          
S1930    S      0.649260000000     0.584700000000     0.544200000000     0          
S1931    S      0.731000000000     0.651200000000     0.596500000000     0          
S1932    S      0.647700000000     0.452000000000     0.428400000000     0          
S1933    S      0.711200000000     0.558100000000     0.444700000000     0          
Zr1934   Zr     0.926540000000     0.501800000000     0.498310000000     0          
Hg1935   Hg     0.616240000000     0.610810000000     0.342370000000     0          
Cl1936   Cl     0.649300000000     0.560200000000     0.302700000000     0          
Cl1937   Cl     0.650800000000     0.656500000000     0.381300000000     0          
C1938    C      0.877300000000     0.510000000000     0.374700000000     0          
C1939    C      0.822600000000     0.516500000000     0.315700000000     0          
C1940    C      0.862400000000     0.523800000000     0.307700000000     0          
H1941    H      0.870200000000     0.531000000000     0.281500000000     0          
C1942    C      0.891000000000     0.520600000000     0.337300000000     0          
H1943    H      0.918400000000     0.525500000000     0.332200000000     0          
C1944    C      0.793900000000     0.519800000000     0.285300000000     0          
H1945    H      0.768500000000     0.464700000000     0.404200000000     0          
H1946    H      0.767300000000     0.511500000000     0.414500000000     0          
O1947    O      0.962300000000     0.544300000000     0.459100000000     0          
H1948    H      0.946200000000     0.562500000000     0.441900000000     0          
C1949    C      0.905300000000     0.997200000000     0.908200000000     0          
C1950    C      0.874500000000     0.986500000000     0.878100000000     0          
C1951    C      0.836200000000     0.972900000000     0.889400000000     0          
H1952    H      0.829800000000     0.969900000000     0.916700000000     0          
C1953    C      0.808700000000     0.964200000000     0.861300000000     0          
C1954    C      0.817400000000     0.969300000000     0.820200000000     0          
C1955    C      0.855000000000     0.984000000000     0.810500000000     0          
H1956    H      0.860500000000     0.989900000000     0.783400000000     0          
C1957    C      0.884700000000     0.990500000000     0.838300000000     0          
H1958    H      0.910900000000     0.997400000000     0.830400000000     0          
C1959    C      0.788100000000     0.962700000000     0.791300000000     0          
C1960    C      0.763800000000     0.960700000000     0.764900000000     0          
O1961    O      0.771500000000     0.949200000000     0.867700000000     0          
C1962    C      0.757300000000     0.944300000000     0.907600000000     0          
H1963    H      0.773000000000     0.923600000000     0.921400000000     0          
H1964    H      0.760000000000     0.969500000000     0.922500000000     0          
C1965    C      0.714800000000     0.932200000000     0.905700000000     0          
C1966    C      0.690100000000     0.963100000000     0.882100000000     0          
H1967    H      0.699500000000     0.963200000000     0.854200000000     0          
H1968    H      0.662000000000     0.954500000000     0.882000000000     0          
C1969    C      0.731400000000     0.036100000000     0.871100000000     0          
H1970    H      0.757300000000     0.031700000000     0.883700000000     0          
H1971    H      0.731400000000     0.024400000000     0.844500000000     0          
H1972    H      0.726400000000     0.064800000000     0.869100000000     0          
C1973    C      0.700400000000     0.927700000000     0.948800000000     0          
H1974    H      0.716700000000     0.906900000000     0.961800000000     0          
H1975    H      0.705700000000     0.953000000000     0.962900000000     0          
C1976    C      0.626600000000     0.964600000000     0.964700000000     0          
H1977    H      0.639000000000     0.976900000000     0.988000000000     0          
H1978    H      0.630800000000     0.981600000000     0.941400000000     0          
H1979    H      0.598100000000     0.961500000000     0.969400000000     0          
C1980    C      0.707400000000     0.893700000000     0.882400000000     0          
H1981    H      0.678400000000     0.889200000000     0.880900000000     0          
H1982    H      0.717300000000     0.897400000000     0.854900000000     0          
C1983    C      0.774200000000     0.845000000000     0.870000000000     0          
H1984    H      0.790200000000     0.821400000000     0.877700000000     0          
H1985    H      0.790500000000     0.868600000000     0.872100000000     0          
H1986    H      0.765000000000     0.841300000000     0.842700000000     0          
C1987    C      0.910000000000     0.992600000000     0.095600000000     0          
C1988    C      0.838700000000     0.986200000000     0.116300000000     0          
H1989    H      0.831800000000     0.992900000000     0.089700000000     0          
C1990    C      0.809900000000     0.980200000000     0.143500000000     0          
C1991    C      0.764800000000     0.955400000000     0.235900000000     0          
O1992    O      0.770200000000     0.983700000000     0.135900000000     0          
C1993    C      0.758000000000     0.009200000000     0.104300000000     0          
H1994    H      0.769000000000     0.036200000000     0.107900000000     0          
H1995    H      0.767000000000     0.998600000000     0.078400000000     0          
C1996    C      0.710900000000     0.009900000000     0.106600000000     0          
C1997    C      0.698300000000     0.026700000000     0.142800000000     0          
H1998    H      0.668900000000     0.026000000000     0.143300000000     0          
H1999    H      0.707700000000     0.009200000000     0.164500000000     0          
S2000    S      0.713200000000     0.075000000000     0.154100000000     0          
C2001    C      0.685900000000     0.072700000000     0.201800000000     0          
H2002    H      0.689100000000     0.097900000000     0.216000000000     0          
H2003    H      0.696600000000     0.051000000000     0.218000000000     0          
H2004    H      0.657700000000     0.067900000000     0.196600000000     0          
C2005    C      0.699300000000     0.037600000000     0.075200000000     0          
H2006    H      0.713500000000     0.063000000000     0.079500000000     0          
H2007    H      0.708300000000     0.026700000000     0.049400000000     0          
C2008    C      0.638300000000     0.069300000000     0.021700000000     0          
H2009    H      0.609900000000     0.075300000000     0.018900000000     0          
H2010    H      0.646200000000     0.050100000000     0.001300000000     0          
H2011    H      0.653700000000     0.093800000000     0.018500000000     0          
C2012    C      0.695700000000     0.967700000000     0.100500000000     0          
H2013    H      0.704400000000     0.951600000000     0.123600000000     0          
H2014    H      0.666300000000     0.968500000000     0.100900000000     0          
C2015    C      0.754700000000     0.914400000000     0.073500000000     0          
H2016    H      0.758800000000     0.920200000000     0.101700000000     0          
H2017    H      0.750300000000     0.885800000000     0.070000000000     0          
H2018    H      0.778300000000     0.922500000000     0.058400000000     0          
O2019    O      0.892200000000     0.997600000000     0.945500000000     0          
O2020    O      0.940100000000     0.001000000000     0.896600000000     0          
O2021    O      0.896400000000     0.995900000000     0.060000000000     0          
O2022    O      0.945500000000     0.995100000000     0.106300000000     0          
S2023    S      0.692600000000     0.013100000000     0.901100000000     0          
S2024    S      0.649260000000     0.915300000000     0.955800000000     0          
S2025    S      0.731000000000     0.848800000000     0.903500000000     0          
S2026    S      0.647700000000     0.048000000000     0.071600000000     0          
S2027    S      0.711200000000     0.941900000000     0.055300000000     0          
Zr2028   Zr     0.926540000000     0.998200000000     0.001690000000     0          
Hg2029   Hg     0.616240000000     0.889190000000     0.157630000000     0          
Cl2030   Cl     0.649300000000     0.939800000000     0.197300000000     0          
Cl2031   Cl     0.650800000000     0.843500000000     0.118700000000     0          
C2032    C      0.877300000000     0.990000000000     0.125300000000     0          
C2033    C      0.822600000000     0.983500000000     0.184300000000     0          
C2034    C      0.862400000000     0.976200000000     0.192300000000     0          
H2035    H      0.870200000000     0.969000000000     0.218500000000     0          
C2036    C      0.891000000000     0.979400000000     0.162700000000     0          
H2037    H      0.918400000000     0.974500000000     0.167800000000     0          
C2038    C      0.793900000000     0.980200000000     0.214700000000     0          
O2039    O      0.962300000000     0.955700000000     0.040900000000     0          
H2040    H      0.946200000000     0.937500000000     0.058100000000     0          
C2041    C      0.594700000000     0.502800000000     0.908200000000     0          
C2042    C      0.625500000000     0.513500000000     0.878100000000     0          
C2043    C      0.663800000000     0.527100000000     0.889400000000     0          
H2044    H      0.670200000000     0.530100000000     0.916700000000     0          
C2045    C      0.691300000000     0.535800000000     0.861300000000     0          
C2046    C      0.682600000000     0.530700000000     0.820200000000     0          
C2047    C      0.645000000000     0.516000000000     0.810500000000     0          
H2048    H      0.639500000000     0.510100000000     0.783400000000     0          
C2049    C      0.615300000000     0.509500000000     0.838300000000     0          
H2050    H      0.589100000000     0.502600000000     0.830400000000     0          
C2051    C      0.711900000000     0.537300000000     0.791300000000     0          
C2052    C      0.736200000000     0.539300000000     0.764900000000     0          
O2053    O      0.728500000000     0.550800000000     0.867700000000     0          
C2054    C      0.742700000000     0.555700000000     0.907600000000     0          
H2055    H      0.727000000000     0.576400000000     0.921400000000     0          
H2056    H      0.740000000000     0.530500000000     0.922500000000     0          
C2057    C      0.785200000000     0.567800000000     0.905700000000     0          
C2058    C      0.809900000000     0.536900000000     0.882100000000     0          
H2059    H      0.800500000000     0.536800000000     0.854200000000     0          
H2060    H      0.838000000000     0.545500000000     0.882000000000     0          
C2061    C      0.768600000000     0.463900000000     0.871100000000     0          
H2062    H      0.742700000000     0.468300000000     0.883700000000     0          
H2063    H      0.768600000000     0.475600000000     0.844500000000     0          
H2064    H      0.773600000000     0.435200000000     0.869100000000     0          
C2065    C      0.799600000000     0.572300000000     0.948800000000     0          
H2066    H      0.783300000000     0.593100000000     0.961800000000     0          
H2067    H      0.794300000000     0.547000000000     0.962900000000     0          
C2068    C      0.873400000000     0.535400000000     0.964700000000     0          
H2069    H      0.861000000000     0.523100000000     0.988000000000     0          
H2070    H      0.869200000000     0.518400000000     0.941400000000     0          
H2071    H      0.901900000000     0.538500000000     0.969400000000     0          
C2072    C      0.792600000000     0.606300000000     0.882400000000     0          
H2073    H      0.821600000000     0.610800000000     0.880900000000     0          
H2074    H      0.782700000000     0.602600000000     0.854900000000     0          
C2075    C      0.725800000000     0.655000000000     0.870000000000     0          
H2076    H      0.709800000000     0.678600000000     0.877700000000     0          
H2077    H      0.709500000000     0.631400000000     0.872100000000     0          
H2078    H      0.735000000000     0.658700000000     0.842700000000     0          
C2079    C      0.590000000000     0.507400000000     0.095600000000     0          
C2080    C      0.661300000000     0.513800000000     0.116300000000     0          
H2081    H      0.668200000000     0.507100000000     0.089700000000     0          
C2082    C      0.690100000000     0.519800000000     0.143500000000     0          
C2083    C      0.735200000000     0.544600000000     0.235900000000     0          
O2084    O      0.729800000000     0.516300000000     0.135900000000     0          
C2085    C      0.742000000000     0.490800000000     0.104300000000     0          
C2086    C      0.789100000000     0.490100000000     0.106600000000     0          
C2087    C      0.801700000000     0.473300000000     0.142800000000     0          
H2088    H      0.831100000000     0.474000000000     0.143300000000     0          
H2089    H      0.792300000000     0.490800000000     0.164500000000     0          
S2090    S      0.786800000000     0.425000000000     0.154100000000     0          
C2091    C      0.814100000000     0.427300000000     0.201800000000     0          
H2092    H      0.810900000000     0.402100000000     0.216000000000     0          
H2093    H      0.803400000000     0.449000000000     0.218000000000     0          
H2094    H      0.842300000000     0.432100000000     0.196600000000     0          
C2095    C      0.800700000000     0.462400000000     0.075200000000     0          
H2096    H      0.786500000000     0.437000000000     0.079500000000     0          
H2097    H      0.791700000000     0.473300000000     0.049400000000     0          
C2098    C      0.861700000000     0.430700000000     0.021700000000     0          
H2099    H      0.890100000000     0.424700000000     0.018900000000     0          
H2100    H      0.853800000000     0.449900000000     0.001300000000     0          
H2101    H      0.846300000000     0.406200000000     0.018500000000     0          
C2102    C      0.804300000000     0.532300000000     0.100500000000     0          
H2103    H      0.795600000000     0.548400000000     0.123600000000     0          
H2104    H      0.833700000000     0.531500000000     0.100900000000     0          
C2105    C      0.745300000000     0.585600000000     0.073500000000     0          
H2106    H      0.741200000000     0.579800000000     0.101700000000     0          
H2107    H      0.749700000000     0.614200000000     0.070000000000     0          
H2108    H      0.721700000000     0.577500000000     0.058400000000     0          
O2109    O      0.607800000000     0.502400000000     0.945500000000     0          
O2110    O      0.559900000000     0.499000000000     0.896600000000     0          
O2111    O      0.603600000000     0.504100000000     0.060000000000     0          
O2112    O      0.554500000000     0.504900000000     0.106300000000     0          
S2113    S      0.807400000000     0.486900000000     0.901100000000     0          
S2114    S      0.850740000000     0.584700000000     0.955800000000     0          
S2115    S      0.769000000000     0.651200000000     0.903500000000     0          
S2116    S      0.852300000000     0.452000000000     0.071600000000     0          
S2117    S      0.788800000000     0.558100000000     0.055300000000     0          
Zr2118   Zr     0.573460000000     0.501800000000     0.001690000000     0          
Hg2119   Hg     0.883760000000     0.610810000000     0.157630000000     0          
Cl2120   Cl     0.850700000000     0.560200000000     0.197300000000     0          
Cl2121   Cl     0.849200000000     0.656500000000     0.118700000000     0          
C2122    C      0.622700000000     0.510000000000     0.125300000000     0          
C2123    C      0.677400000000     0.516500000000     0.184300000000     0          
C2124    C      0.637600000000     0.523800000000     0.192300000000     0          
H2125    H      0.629800000000     0.531000000000     0.218500000000     0          
C2126    C      0.609000000000     0.520600000000     0.162700000000     0          
H2127    H      0.581600000000     0.525500000000     0.167800000000     0          
C2128    C      0.706100000000     0.519800000000     0.214700000000     0          
H2129    H      0.731500000000     0.464700000000     0.095800000000     0          
H2130    H      0.732700000000     0.511500000000     0.085500000000     0          
O2131    O      0.537700000000     0.544300000000     0.040900000000     0          
H2132    H      0.553800000000     0.562500000000     0.058100000000     0          
C2133    C      0.594700000000     0.997200000000     0.591800000000     0          
C2134    C      0.625500000000     0.986500000000     0.621900000000     0          
C2135    C      0.663800000000     0.972900000000     0.610600000000     0          
H2136    H      0.670200000000     0.969900000000     0.583300000000     0          
C2137    C      0.691300000000     0.964200000000     0.638700000000     0          
C2138    C      0.682600000000     0.969300000000     0.679800000000     0          
C2139    C      0.645000000000     0.984000000000     0.689500000000     0          
H2140    H      0.639500000000     0.989900000000     0.716600000000     0          
C2141    C      0.615300000000     0.990500000000     0.661700000000     0          
H2142    H      0.589100000000     0.997400000000     0.669600000000     0          
C2143    C      0.711900000000     0.962700000000     0.708700000000     0          
C2144    C      0.736200000000     0.960700000000     0.735100000000     0          
O2145    O      0.728500000000     0.949200000000     0.632300000000     0          
C2146    C      0.742700000000     0.944300000000     0.592400000000     0          
H2147    H      0.727000000000     0.923600000000     0.578600000000     0          
H2148    H      0.740000000000     0.969500000000     0.577500000000     0          
C2149    C      0.785200000000     0.932200000000     0.594300000000     0          
C2150    C      0.809900000000     0.963100000000     0.617900000000     0          
H2151    H      0.800500000000     0.963200000000     0.645800000000     0          
H2152    H      0.838000000000     0.954500000000     0.618000000000     0          
C2153    C      0.768600000000     0.036100000000     0.628900000000     0          
H2154    H      0.742700000000     0.031700000000     0.616300000000     0          
H2155    H      0.768600000000     0.024400000000     0.655500000000     0          
H2156    H      0.773600000000     0.064800000000     0.630900000000     0          
C2157    C      0.799600000000     0.927700000000     0.551200000000     0          
H2158    H      0.783300000000     0.906900000000     0.538200000000     0          
H2159    H      0.794300000000     0.953000000000     0.537100000000     0          
C2160    C      0.873400000000     0.964600000000     0.535300000000     0          
H2161    H      0.861000000000     0.976900000000     0.512000000000     0          
H2162    H      0.869200000000     0.981600000000     0.558600000000     0          
H2163    H      0.901900000000     0.961500000000     0.530600000000     0          
C2164    C      0.792600000000     0.893700000000     0.617600000000     0          
H2165    H      0.821600000000     0.889200000000     0.619100000000     0          
H2166    H      0.782700000000     0.897400000000     0.645100000000     0          
C2167    C      0.725800000000     0.845000000000     0.630000000000     0          
H2168    H      0.709800000000     0.821400000000     0.622300000000     0          
H2169    H      0.709500000000     0.868600000000     0.627900000000     0          
H2170    H      0.735000000000     0.841300000000     0.657300000000     0          
C2171    C      0.590000000000     0.992600000000     0.404400000000     0          
C2172    C      0.661300000000     0.986200000000     0.383700000000     0          
H2173    H      0.668200000000     0.992900000000     0.410300000000     0          
C2174    C      0.690100000000     0.980200000000     0.356500000000     0          
C2175    C      0.735200000000     0.955400000000     0.264100000000     0          
C2176    C      0.742000000000     0.009200000000     0.395700000000     0          
H2177    H      0.731000000000     0.036200000000     0.392100000000     0          
H2178    H      0.733000000000     0.998600000000     0.421600000000     0          
C2179    C      0.789100000000     0.009900000000     0.393400000000     0          
C2180    C      0.801700000000     0.026700000000     0.357200000000     0          
H2181    H      0.831100000000     0.026000000000     0.356700000000     0          
H2182    H      0.792300000000     0.009200000000     0.335500000000     0          
S2183    S      0.786800000000     0.075000000000     0.345900000000     0          
C2184    C      0.814100000000     0.072700000000     0.298200000000     0          
H2185    H      0.810900000000     0.097900000000     0.284000000000     0          
H2186    H      0.803400000000     0.051000000000     0.282000000000     0          
H2187    H      0.842300000000     0.067900000000     0.303400000000     0          
C2188    C      0.800700000000     0.037600000000     0.424800000000     0          
H2189    H      0.786500000000     0.063000000000     0.420500000000     0          
H2190    H      0.791700000000     0.026700000000     0.450600000000     0          
C2191    C      0.861700000000     0.069300000000     0.478300000000     0          
H2192    H      0.890100000000     0.075300000000     0.481100000000     0          
H2193    H      0.853800000000     0.050100000000     0.498700000000     0          
H2194    H      0.846300000000     0.093800000000     0.481500000000     0          
C2195    C      0.804300000000     0.967700000000     0.399500000000     0          
H2196    H      0.795600000000     0.951600000000     0.376400000000     0          
H2197    H      0.833700000000     0.968500000000     0.399100000000     0          
C2198    C      0.745300000000     0.914400000000     0.426500000000     0          
H2199    H      0.741200000000     0.920200000000     0.398300000000     0          
H2200    H      0.749700000000     0.885800000000     0.430000000000     0          
H2201    H      0.721700000000     0.922500000000     0.441600000000     0          
O2202    O      0.607800000000     0.997600000000     0.554500000000     0          
O2203    O      0.559900000000     0.001000000000     0.603400000000     0          
O2204    O      0.603600000000     0.995900000000     0.440000000000     0          
O2205    O      0.554500000000     0.995100000000     0.393700000000     0          
S2206    S      0.807400000000     0.013100000000     0.598900000000     0          
S2207    S      0.850740000000     0.915300000000     0.544200000000     0          
S2208    S      0.769000000000     0.848800000000     0.596500000000     0          
S2209    S      0.852300000000     0.048000000000     0.428400000000     0          
S2210    S      0.788800000000     0.941900000000     0.444700000000     0          
Zr2211   Zr     0.573460000000     0.998200000000     0.498310000000     0          
Hg2212   Hg     0.883760000000     0.889190000000     0.342370000000     0          
Cl2213   Cl     0.850700000000     0.939800000000     0.302700000000     0          
Cl2214   Cl     0.849200000000     0.843500000000     0.381300000000     0          
C2215    C      0.622700000000     0.990000000000     0.374700000000     0          
C2216    C      0.677400000000     0.983500000000     0.315700000000     0          
C2217    C      0.637600000000     0.976200000000     0.307700000000     0          
H2218    H      0.629800000000     0.969000000000     0.281500000000     0          
C2219    C      0.609000000000     0.979400000000     0.337300000000     0          
H2220    H      0.581600000000     0.974500000000     0.332200000000     0          
C2221    C      0.706100000000     0.980200000000     0.285300000000     0          
O2222    O      0.730000000000     0.000100000000     0.356500000000     0          
O2223    O      0.537700000000     0.955700000000     0.459100000000     0          
H2224    H      0.553800000000     0.937500000000     0.441900000000     0          


