data_DAQNUH

_audit_creation_method RASPA-1.0
_audit_creation_date 2020-11-2
_audit_author_name 'Rocio Bueno-Perez'

_cell_length_a    38.399
_cell_length_b    38.399
_cell_length_c    38.399
_cell_angle_alpha 90
_cell_angle_beta  90
_cell_angle_gamma 90
_cell_volume      56618.7

_symmetry_cell_setting          cubic
_symmetry_space_group_name_Hall 'P 1'
_symmetry_space_group_name_H-M  'P 1'
_symmetry_Int_Tables_number     1

_symmetry_equiv_pos_as_xyz 'x,y,z'

loop_
_atom_site_label
_atom_site_type_symbol
_atom_site_fract_x
_atom_site_fract_y
_atom_site_fract_z
_atom_site_charge
C1       C      0.482670000000     0.247100000000     0.109300000000     0          
C2       C      0.470960000000     0.249100000000     0.071820000000     0          
C5       C      0.391000000000     0.219900000000     0.096400000000     0          
C6       C      0.364520000000     0.222200000000     0.123000000000     0          
O1       O      0.332000000000     0.281700000000     0.191200000000     0          
H1       H      0.467860000000     0.246050000000     0.129410000000     0          
H2       H      0.395650000000     0.199060000000     0.083420000000     0          
H3       H      0.350300000000     0.202160000000     0.127600000000     0          
O6?      O      0.323000000000     0.275000000000     0.182400000000     0          
Zr1      Zr     0.300600000000     0.300600000000     0.235300000000     0          
Co1      Co     0.500000000000     0.250000000000     0.000000000000     0          
N1       N      0.500000000000     0.248500000000     0.051890000000     0          
C3       C      0.436950000000     0.250000000000     0.063050000000     0          
C4       C      0.408500000000     0.250000000000     0.091500000000     0          
C7       C      0.359400000000     0.250000000000     0.140600000000     0          
C8       C      0.326800000000     0.250000000000     0.173200000000     0          
C9       C      0.500000000000     0.299100000000     0.000000000000     0          
O5       O      0.500000000000     0.329900000000     0.000000000000     0          
O3       O      0.248630000000     0.319210000000     0.248630000000     0          
Zr2?     Zr     0.216080000000     0.279420000000     0.216080000000     0          
O4       O      0.282410000000     0.282410000000     0.282410000000     0          
C1       C      0.752900000000     0.482670000000     0.109300000000     0          
C2       C      0.750900000000     0.470960000000     0.071820000000     0          
C5       C      0.780100000000     0.391000000000     0.096400000000     0          
C6       C      0.777800000000     0.364520000000     0.123000000000     0          
O1       O      0.718300000000     0.332000000000     0.191200000000     0          
H1       H      0.753950000000     0.467860000000     0.129410000000     0          
H2       H      0.800940000000     0.395650000000     0.083420000000     0          
H3       H      0.797840000000     0.350300000000     0.127600000000     0          
O6?      O      0.725000000000     0.323000000000     0.182400000000     0          
Zr1      Zr     0.699400000000     0.300600000000     0.235300000000     0          
Co1      Co     0.750000000000     0.500000000000     0.000000000000     0          
N1       N      0.751500000000     0.500000000000     0.051890000000     0          
C3       C      0.750000000000     0.436950000000     0.063050000000     0          
C4       C      0.750000000000     0.408500000000     0.091500000000     0          
C7       C      0.750000000000     0.359400000000     0.140600000000     0          
C8       C      0.750000000000     0.326800000000     0.173200000000     0          
C9       C      0.700900000000     0.500000000000     0.000000000000     0          
O5       O      0.670100000000     0.500000000000     0.000000000000     0          
O3       O      0.680790000000     0.248630000000     0.248630000000     0          
Zr2?     Zr     0.720580000000     0.216080000000     0.216080000000     0          
O4       O      0.717590000000     0.282410000000     0.282410000000     0          
C1       C      0.517330000000     0.752900000000     0.109300000000     0          
C2       C      0.529040000000     0.750900000000     0.071820000000     0          
C5       C      0.609000000000     0.780100000000     0.096400000000     0          
C6       C      0.635480000000     0.777800000000     0.123000000000     0          
O1       O      0.668000000000     0.718300000000     0.191200000000     0          
H1       H      0.532140000000     0.753950000000     0.129410000000     0          
H2       H      0.604350000000     0.800940000000     0.083420000000     0          
H3       H      0.649700000000     0.797840000000     0.127600000000     0          
O6?      O      0.677000000000     0.725000000000     0.182400000000     0          
Zr1      Zr     0.699400000000     0.699400000000     0.235300000000     0          
Co1      Co     0.500000000000     0.750000000000     0.000000000000     0          
N1       N      0.500000000000     0.751500000000     0.051890000000     0          
C3       C      0.563050000000     0.750000000000     0.063050000000     0          
C4       C      0.591500000000     0.750000000000     0.091500000000     0          
C7       C      0.640600000000     0.750000000000     0.140600000000     0          
C8       C      0.673200000000     0.750000000000     0.173200000000     0          
C9       C      0.500000000000     0.700900000000     0.000000000000     0          
O5       O      0.500000000000     0.670100000000     0.000000000000     0          
O3       O      0.751370000000     0.680790000000     0.248630000000     0          
Zr2?     Zr     0.783920000000     0.720580000000     0.216080000000     0          
O4       O      0.717590000000     0.717590000000     0.282410000000     0          
C1       C      0.247100000000     0.517330000000     0.109300000000     0          
C2       C      0.249100000000     0.529040000000     0.071820000000     0          
C5       C      0.219900000000     0.609000000000     0.096400000000     0          
C6       C      0.222200000000     0.635480000000     0.123000000000     0          
O1       O      0.281700000000     0.668000000000     0.191200000000     0          
H1       H      0.246050000000     0.532140000000     0.129410000000     0          
H2       H      0.199060000000     0.604350000000     0.083420000000     0          
H3       H      0.202160000000     0.649700000000     0.127600000000     0          
O6?      O      0.275000000000     0.677000000000     0.182400000000     0          
Zr1      Zr     0.300600000000     0.699400000000     0.235300000000     0          
Co1      Co     0.250000000000     0.500000000000     0.000000000000     0          
N1       N      0.248500000000     0.500000000000     0.051890000000     0          
C3       C      0.250000000000     0.563050000000     0.063050000000     0          
C4       C      0.250000000000     0.591500000000     0.091500000000     0          
C7       C      0.250000000000     0.640600000000     0.140600000000     0          
C8       C      0.250000000000     0.673200000000     0.173200000000     0          
C9       C      0.299100000000     0.500000000000     0.000000000000     0          
O5       O      0.329900000000     0.500000000000     0.000000000000     0          
O3       O      0.319210000000     0.751370000000     0.248630000000     0          
Zr2?     Zr     0.279420000000     0.783920000000     0.216080000000     0          
O4       O      0.282410000000     0.717590000000     0.282410000000     0          
C1       C      0.482670000000     0.752900000000     0.890700000000     0          
C2       C      0.470960000000     0.750900000000     0.928180000000     0          
C5       C      0.391000000000     0.780100000000     0.903600000000     0          
C6       C      0.364520000000     0.777800000000     0.877000000000     0          
O1       O      0.332000000000     0.718300000000     0.808800000000     0          
H1       H      0.467860000000     0.753950000000     0.870590000000     0          
H2       H      0.395650000000     0.800940000000     0.916580000000     0          
H3       H      0.350300000000     0.797840000000     0.872400000000     0          
O6?      O      0.323000000000     0.725000000000     0.817600000000     0          
Zr1      Zr     0.300600000000     0.699400000000     0.764700000000     0          
N1       N      0.500000000000     0.751500000000     0.948110000000     0          
C3       C      0.436950000000     0.750000000000     0.936950000000     0          
C4       C      0.408500000000     0.750000000000     0.908500000000     0          
C7       C      0.359400000000     0.750000000000     0.859400000000     0          
C8       C      0.326800000000     0.750000000000     0.826800000000     0          
O3       O      0.248630000000     0.680790000000     0.751370000000     0          
Zr2?     Zr     0.216080000000     0.720580000000     0.783920000000     0          
O4       O      0.282410000000     0.717590000000     0.717590000000     0          
C1       C      0.247100000000     0.482670000000     0.890700000000     0          
C2       C      0.249100000000     0.470960000000     0.928180000000     0          
C5       C      0.219900000000     0.391000000000     0.903600000000     0          
C6       C      0.222200000000     0.364520000000     0.877000000000     0          
O1       O      0.281700000000     0.332000000000     0.808800000000     0          
H1       H      0.246050000000     0.467860000000     0.870590000000     0          
H2       H      0.199060000000     0.395650000000     0.916580000000     0          
H3       H      0.202160000000     0.350300000000     0.872400000000     0          
O6?      O      0.275000000000     0.323000000000     0.817600000000     0          
Zr1      Zr     0.300600000000     0.300600000000     0.764700000000     0          
N1       N      0.248500000000     0.500000000000     0.948110000000     0          
C3       C      0.250000000000     0.436950000000     0.936950000000     0          
C4       C      0.250000000000     0.408500000000     0.908500000000     0          
C7       C      0.250000000000     0.359400000000     0.859400000000     0          
C8       C      0.250000000000     0.326800000000     0.826800000000     0          
O3       O      0.319210000000     0.248630000000     0.751370000000     0          
Zr2?     Zr     0.279420000000     0.216080000000     0.783920000000     0          
O4       O      0.282410000000     0.282410000000     0.717590000000     0          
C1       C      0.517330000000     0.247100000000     0.890700000000     0          
C2       C      0.529040000000     0.249100000000     0.928180000000     0          
C5       C      0.609000000000     0.219900000000     0.903600000000     0          
C6       C      0.635480000000     0.222200000000     0.877000000000     0          
O1       O      0.668000000000     0.281700000000     0.808800000000     0          
H1       H      0.532140000000     0.246050000000     0.870590000000     0          
H2       H      0.604350000000     0.199060000000     0.916580000000     0          
H3       H      0.649700000000     0.202160000000     0.872400000000     0          
O6?      O      0.677000000000     0.275000000000     0.817600000000     0          
Zr1      Zr     0.699400000000     0.300600000000     0.764700000000     0          
N1       N      0.500000000000     0.248500000000     0.948110000000     0          
C3       C      0.563050000000     0.250000000000     0.936950000000     0          
C4       C      0.591500000000     0.250000000000     0.908500000000     0          
C7       C      0.640600000000     0.250000000000     0.859400000000     0          
C8       C      0.673200000000     0.250000000000     0.826800000000     0          
O3       O      0.751370000000     0.319210000000     0.751370000000     0          
Zr2?     Zr     0.783920000000     0.279420000000     0.783920000000     0          
O4       O      0.717590000000     0.282410000000     0.717590000000     0          
C1       C      0.752900000000     0.517330000000     0.890700000000     0          
C2       C      0.750900000000     0.529040000000     0.928180000000     0          
C5       C      0.780100000000     0.609000000000     0.903600000000     0          
C6       C      0.777800000000     0.635480000000     0.877000000000     0          
O1       O      0.718300000000     0.668000000000     0.808800000000     0          
H1       H      0.753950000000     0.532140000000     0.870590000000     0          
H2       H      0.800940000000     0.604350000000     0.916580000000     0          
H3       H      0.797840000000     0.649700000000     0.872400000000     0          
O6?      O      0.725000000000     0.677000000000     0.817600000000     0          
Zr1      Zr     0.699400000000     0.699400000000     0.764700000000     0          
N1       N      0.751500000000     0.500000000000     0.948110000000     0          
C3       C      0.750000000000     0.563050000000     0.936950000000     0          
C4       C      0.750000000000     0.591500000000     0.908500000000     0          
C7       C      0.750000000000     0.640600000000     0.859400000000     0          
C8       C      0.750000000000     0.673200000000     0.826800000000     0          
O3       O      0.680790000000     0.751370000000     0.751370000000     0          
Zr2?     Zr     0.720580000000     0.783920000000     0.783920000000     0          
O4       O      0.717590000000     0.717590000000     0.717590000000     0          
C1       C      0.109300000000     0.482670000000     0.247100000000     0          
C2       C      0.071820000000     0.470960000000     0.249100000000     0          
C5       C      0.096400000000     0.391000000000     0.219900000000     0          
C6       C      0.123000000000     0.364520000000     0.222200000000     0          
O1       O      0.191200000000     0.332000000000     0.281700000000     0          
H1       H      0.129410000000     0.467860000000     0.246050000000     0          
H2       H      0.083420000000     0.395650000000     0.199060000000     0          
H3       H      0.127600000000     0.350300000000     0.202160000000     0          
O6?      O      0.182400000000     0.323000000000     0.275000000000     0          
Zr1      Zr     0.235300000000     0.300600000000     0.300600000000     0          
Co1      Co     0.000000000000     0.500000000000     0.250000000000     0          
N1       N      0.051890000000     0.500000000000     0.248500000000     0          
C3       C      0.063050000000     0.436950000000     0.250000000000     0          
C4       C      0.091500000000     0.408500000000     0.250000000000     0          
C7       C      0.140600000000     0.359400000000     0.250000000000     0          
C8       C      0.173200000000     0.326800000000     0.250000000000     0          
C9       C      0.000000000000     0.500000000000     0.299100000000     0          
O5       O      0.000000000000     0.500000000000     0.329900000000     0          
O3       O      0.248630000000     0.248630000000     0.319210000000     0          
Zr2?     Zr     0.216080000000     0.216080000000     0.279420000000     0          
C1       C      0.517330000000     0.109300000000     0.247100000000     0          
C2       C      0.529040000000     0.071820000000     0.249100000000     0          
C5       C      0.609000000000     0.096400000000     0.219900000000     0          
C6       C      0.635480000000     0.123000000000     0.222200000000     0          
O1       O      0.668000000000     0.191200000000     0.281700000000     0          
H1       H      0.532140000000     0.129410000000     0.246050000000     0          
H2       H      0.604350000000     0.083420000000     0.199060000000     0          
H3       H      0.649700000000     0.127600000000     0.202160000000     0          
O6?      O      0.677000000000     0.182400000000     0.275000000000     0          
Zr1      Zr     0.699400000000     0.235300000000     0.300600000000     0          
Co1      Co     0.500000000000     0.000000000000     0.250000000000     0          
N1       N      0.500000000000     0.051890000000     0.248500000000     0          
C3       C      0.563050000000     0.063050000000     0.250000000000     0          
C4       C      0.591500000000     0.091500000000     0.250000000000     0          
C7       C      0.640600000000     0.140600000000     0.250000000000     0          
C8       C      0.673200000000     0.173200000000     0.250000000000     0          
C9       C      0.500000000000     0.000000000000     0.299100000000     0          
O5       O      0.500000000000     0.000000000000     0.329900000000     0          
O3       O      0.751370000000     0.248630000000     0.319210000000     0          
Zr2?     Zr     0.783920000000     0.216080000000     0.279420000000     0          
C1       C      0.890700000000     0.517330000000     0.247100000000     0          
C2       C      0.928180000000     0.529040000000     0.249100000000     0          
C5       C      0.903600000000     0.609000000000     0.219900000000     0          
C6       C      0.877000000000     0.635480000000     0.222200000000     0          
O1       O      0.808800000000     0.668000000000     0.281700000000     0          
H1       H      0.870590000000     0.532140000000     0.246050000000     0          
H2       H      0.916580000000     0.604350000000     0.199060000000     0          
H3       H      0.872400000000     0.649700000000     0.202160000000     0          
O6?      O      0.817600000000     0.677000000000     0.275000000000     0          
Zr1      Zr     0.764700000000     0.699400000000     0.300600000000     0          
N1       N      0.948110000000     0.500000000000     0.248500000000     0          
C3       C      0.936950000000     0.563050000000     0.250000000000     0          
C4       C      0.908500000000     0.591500000000     0.250000000000     0          
C7       C      0.859400000000     0.640600000000     0.250000000000     0          
C8       C      0.826800000000     0.673200000000     0.250000000000     0          
O3       O      0.751370000000     0.751370000000     0.319210000000     0          
Zr2?     Zr     0.783920000000     0.783920000000     0.279420000000     0          
C1       C      0.482670000000     0.890700000000     0.247100000000     0          
C2       C      0.470960000000     0.928180000000     0.249100000000     0          
C5       C      0.391000000000     0.903600000000     0.219900000000     0          
C6       C      0.364520000000     0.877000000000     0.222200000000     0          
O1       O      0.332000000000     0.808800000000     0.281700000000     0          
H1       H      0.467860000000     0.870590000000     0.246050000000     0          
H2       H      0.395650000000     0.916580000000     0.199060000000     0          
H3       H      0.350300000000     0.872400000000     0.202160000000     0          
O6?      O      0.323000000000     0.817600000000     0.275000000000     0          
Zr1      Zr     0.300600000000     0.764700000000     0.300600000000     0          
N1       N      0.500000000000     0.948110000000     0.248500000000     0          
C3       C      0.436950000000     0.936950000000     0.250000000000     0          
C4       C      0.408500000000     0.908500000000     0.250000000000     0          
C7       C      0.359400000000     0.859400000000     0.250000000000     0          
C8       C      0.326800000000     0.826800000000     0.250000000000     0          
O3       O      0.248630000000     0.751370000000     0.319210000000     0          
Zr2?     Zr     0.216080000000     0.783920000000     0.279420000000     0          
C1       C      0.109300000000     0.517330000000     0.752900000000     0          
C2       C      0.071820000000     0.529040000000     0.750900000000     0          
C5       C      0.096400000000     0.609000000000     0.780100000000     0          
C6       C      0.123000000000     0.635480000000     0.777800000000     0          
O1       O      0.191200000000     0.668000000000     0.718300000000     0          
H1       H      0.129410000000     0.532140000000     0.753950000000     0          
H2       H      0.083420000000     0.604350000000     0.800940000000     0          
H3       H      0.127600000000     0.649700000000     0.797840000000     0          
O6?      O      0.182400000000     0.677000000000     0.725000000000     0          
Zr1      Zr     0.235300000000     0.699400000000     0.699400000000     0          
Co1      Co     0.000000000000     0.500000000000     0.750000000000     0          
N1       N      0.051890000000     0.500000000000     0.751500000000     0          
C3       C      0.063050000000     0.563050000000     0.750000000000     0          
C4       C      0.091500000000     0.591500000000     0.750000000000     0          
C7       C      0.140600000000     0.640600000000     0.750000000000     0          
C8       C      0.173200000000     0.673200000000     0.750000000000     0          
C9       C      0.000000000000     0.500000000000     0.700900000000     0          
O5       O      0.000000000000     0.500000000000     0.670100000000     0          
O3       O      0.248630000000     0.751370000000     0.680790000000     0          
Zr2?     Zr     0.216080000000     0.783920000000     0.720580000000     0          
C1       C      0.482670000000     0.109300000000     0.752900000000     0          
C2       C      0.470960000000     0.071820000000     0.750900000000     0          
C5       C      0.391000000000     0.096400000000     0.780100000000     0          
C6       C      0.364520000000     0.123000000000     0.777800000000     0          
O1       O      0.332000000000     0.191200000000     0.718300000000     0          
H1       H      0.467860000000     0.129410000000     0.753950000000     0          
H2       H      0.395650000000     0.083420000000     0.800940000000     0          
H3       H      0.350300000000     0.127600000000     0.797840000000     0          
O6?      O      0.323000000000     0.182400000000     0.725000000000     0          
Zr1      Zr     0.300600000000     0.235300000000     0.699400000000     0          
Co1      Co     0.500000000000     0.000000000000     0.750000000000     0          
N1       N      0.500000000000     0.051890000000     0.751500000000     0          
C3       C      0.436950000000     0.063050000000     0.750000000000     0          
C4       C      0.408500000000     0.091500000000     0.750000000000     0          
C7       C      0.359400000000     0.140600000000     0.750000000000     0          
C8       C      0.326800000000     0.173200000000     0.750000000000     0          
C9       C      0.500000000000     0.000000000000     0.700900000000     0          
O5       O      0.500000000000     0.000000000000     0.670100000000     0          
O3       O      0.248630000000     0.248630000000     0.680790000000     0          
Zr2?     Zr     0.216080000000     0.216080000000     0.720580000000     0          
C1       C      0.890700000000     0.482670000000     0.752900000000     0          
C2       C      0.928180000000     0.470960000000     0.750900000000     0          
C5       C      0.903600000000     0.391000000000     0.780100000000     0          
C6       C      0.877000000000     0.364520000000     0.777800000000     0          
O1       O      0.808800000000     0.332000000000     0.718300000000     0          
H1       H      0.870590000000     0.467860000000     0.753950000000     0          
H2       H      0.916580000000     0.395650000000     0.800940000000     0          
H3       H      0.872400000000     0.350300000000     0.797840000000     0          
O6?      O      0.817600000000     0.323000000000     0.725000000000     0          
Zr1      Zr     0.764700000000     0.300600000000     0.699400000000     0          
N1       N      0.948110000000     0.500000000000     0.751500000000     0          
C3       C      0.936950000000     0.436950000000     0.750000000000     0          
C4       C      0.908500000000     0.408500000000     0.750000000000     0          
C7       C      0.859400000000     0.359400000000     0.750000000000     0          
C8       C      0.826800000000     0.326800000000     0.750000000000     0          
O3       O      0.751370000000     0.248630000000     0.680790000000     0          
Zr2?     Zr     0.783920000000     0.216080000000     0.720580000000     0          
C1       C      0.517330000000     0.890700000000     0.752900000000     0          
C2       C      0.529040000000     0.928180000000     0.750900000000     0          
C5       C      0.609000000000     0.903600000000     0.780100000000     0          
C6       C      0.635480000000     0.877000000000     0.777800000000     0          
O1       O      0.668000000000     0.808800000000     0.718300000000     0          
H1       H      0.532140000000     0.870590000000     0.753950000000     0          
H2       H      0.604350000000     0.916580000000     0.800940000000     0          
H3       H      0.649700000000     0.872400000000     0.797840000000     0          
O6?      O      0.677000000000     0.817600000000     0.725000000000     0          
Zr1      Zr     0.699400000000     0.764700000000     0.699400000000     0          
N1       N      0.500000000000     0.948110000000     0.751500000000     0          
C3       C      0.563050000000     0.936950000000     0.750000000000     0          
C4       C      0.591500000000     0.908500000000     0.750000000000     0          
C7       C      0.640600000000     0.859400000000     0.750000000000     0          
C8       C      0.673200000000     0.826800000000     0.750000000000     0          
O3       O      0.751370000000     0.751370000000     0.680790000000     0          
Zr2?     Zr     0.783920000000     0.783920000000     0.720580000000     0          
C1       C      0.247100000000     0.109300000000     0.482670000000     0          
C2       C      0.249100000000     0.071820000000     0.470960000000     0          
C5       C      0.219900000000     0.096400000000     0.391000000000     0          
C6       C      0.222200000000     0.123000000000     0.364520000000     0          
O1       O      0.281700000000     0.191200000000     0.332000000000     0          
H1       H      0.246050000000     0.129410000000     0.467860000000     0          
H2       H      0.199060000000     0.083420000000     0.395650000000     0          
H3       H      0.202160000000     0.127600000000     0.350300000000     0          
O6?      O      0.275000000000     0.182400000000     0.323000000000     0          
Zr1      Zr     0.300600000000     0.235300000000     0.300600000000     0          
Co1      Co     0.250000000000     0.000000000000     0.500000000000     0          
N1       N      0.248500000000     0.051890000000     0.500000000000     0          
C3       C      0.250000000000     0.063050000000     0.436950000000     0          
C4       C      0.250000000000     0.091500000000     0.408500000000     0          
C7       C      0.250000000000     0.140600000000     0.359400000000     0          
C8       C      0.250000000000     0.173200000000     0.326800000000     0          
C9       C      0.299100000000     0.000000000000     0.500000000000     0          
O5       O      0.329900000000     0.000000000000     0.500000000000     0          
O3       O      0.319210000000     0.248630000000     0.248630000000     0          
Zr2?     Zr     0.279420000000     0.216080000000     0.216080000000     0          
C1       C      0.247100000000     0.890700000000     0.517330000000     0          
C2       C      0.249100000000     0.928180000000     0.529040000000     0          
C5       C      0.219900000000     0.903600000000     0.609000000000     0          
C6       C      0.222200000000     0.877000000000     0.635480000000     0          
O1       O      0.281700000000     0.808800000000     0.668000000000     0          
H1       H      0.246050000000     0.870590000000     0.532140000000     0          
H2       H      0.199060000000     0.916580000000     0.604350000000     0          
H3       H      0.202160000000     0.872400000000     0.649700000000     0          
O6?      O      0.275000000000     0.817600000000     0.677000000000     0          
Zr1      Zr     0.300600000000     0.764700000000     0.699400000000     0          
N1       N      0.248500000000     0.948110000000     0.500000000000     0          
C3       C      0.250000000000     0.936950000000     0.563050000000     0          
C4       C      0.250000000000     0.908500000000     0.591500000000     0          
C7       C      0.250000000000     0.859400000000     0.640600000000     0          
C8       C      0.250000000000     0.826800000000     0.673200000000     0          
O3       O      0.319210000000     0.751370000000     0.751370000000     0          
Zr2?     Zr     0.279420000000     0.783920000000     0.783920000000     0          
C1       C      0.109300000000     0.247100000000     0.517330000000     0          
C2       C      0.071820000000     0.249100000000     0.529040000000     0          
C5       C      0.096400000000     0.219900000000     0.609000000000     0          
C6       C      0.123000000000     0.222200000000     0.635480000000     0          
O1       O      0.191200000000     0.281700000000     0.668000000000     0          
H1       H      0.129410000000     0.246050000000     0.532140000000     0          
H2       H      0.083420000000     0.199060000000     0.604350000000     0          
H3       H      0.127600000000     0.202160000000     0.649700000000     0          
O6?      O      0.182400000000     0.275000000000     0.677000000000     0          
Zr1      Zr     0.235300000000     0.300600000000     0.699400000000     0          
Co1      Co     0.000000000000     0.250000000000     0.500000000000     0          
N1       N      0.051890000000     0.248500000000     0.500000000000     0          
C3       C      0.063050000000     0.250000000000     0.563050000000     0          
C4       C      0.091500000000     0.250000000000     0.591500000000     0          
C7       C      0.140600000000     0.250000000000     0.640600000000     0          
C8       C      0.173200000000     0.250000000000     0.673200000000     0          
C9       C      0.000000000000     0.299100000000     0.500000000000     0          
O5       O      0.000000000000     0.329900000000     0.500000000000     0          
O3       O      0.248630000000     0.319210000000     0.751370000000     0          
Zr2?     Zr     0.216080000000     0.279420000000     0.783920000000     0          
C1       C      0.752900000000     0.109300000000     0.517330000000     0          
C2       C      0.750900000000     0.071820000000     0.529040000000     0          
C5       C      0.780100000000     0.096400000000     0.609000000000     0          
C6       C      0.777800000000     0.123000000000     0.635480000000     0          
O1       O      0.718300000000     0.191200000000     0.668000000000     0          
H1       H      0.753950000000     0.129410000000     0.532140000000     0          
H2       H      0.800940000000     0.083420000000     0.604350000000     0          
H3       H      0.797840000000     0.127600000000     0.649700000000     0          
O6?      O      0.725000000000     0.182400000000     0.677000000000     0          
Zr1      Zr     0.699400000000     0.235300000000     0.699400000000     0          
Co1      Co     0.750000000000     0.000000000000     0.500000000000     0          
N1       N      0.751500000000     0.051890000000     0.500000000000     0          
C3       C      0.750000000000     0.063050000000     0.563050000000     0          
C4       C      0.750000000000     0.091500000000     0.591500000000     0          
C7       C      0.750000000000     0.140600000000     0.640600000000     0          
C8       C      0.750000000000     0.173200000000     0.673200000000     0          
C9       C      0.700900000000     0.000000000000     0.500000000000     0          
O5       O      0.670100000000     0.000000000000     0.500000000000     0          
O3       O      0.680790000000     0.248630000000     0.751370000000     0          
Zr2?     Zr     0.720580000000     0.216080000000     0.783920000000     0          
C1       C      0.890700000000     0.752900000000     0.517330000000     0          
C2       C      0.928180000000     0.750900000000     0.529040000000     0          
C5       C      0.903600000000     0.780100000000     0.609000000000     0          
C6       C      0.877000000000     0.777800000000     0.635480000000     0          
O1       O      0.808800000000     0.718300000000     0.668000000000     0          
H1       H      0.870590000000     0.753950000000     0.532140000000     0          
H2       H      0.916580000000     0.800940000000     0.604350000000     0          
H3       H      0.872400000000     0.797840000000     0.649700000000     0          
O6?      O      0.817600000000     0.725000000000     0.677000000000     0          
Zr1      Zr     0.764700000000     0.699400000000     0.699400000000     0          
Co1      Co     0.000000000000     0.750000000000     0.500000000000     0          
N1       N      0.948110000000     0.751500000000     0.500000000000     0          
C3       C      0.936950000000     0.750000000000     0.563050000000     0          
C4       C      0.908500000000     0.750000000000     0.591500000000     0          
C7       C      0.859400000000     0.750000000000     0.640600000000     0          
C8       C      0.826800000000     0.750000000000     0.673200000000     0          
C9       C      0.000000000000     0.700900000000     0.500000000000     0          
O5       O      0.000000000000     0.670100000000     0.500000000000     0          
O3       O      0.751370000000     0.680790000000     0.751370000000     0          
Zr2?     Zr     0.783920000000     0.720580000000     0.783920000000     0          
C1       C      0.752900000000     0.890700000000     0.482670000000     0          
C2       C      0.750900000000     0.928180000000     0.470960000000     0          
C5       C      0.780100000000     0.903600000000     0.391000000000     0          
C6       C      0.777800000000     0.877000000000     0.364520000000     0          
O1       O      0.718300000000     0.808800000000     0.332000000000     0          
H1       H      0.753950000000     0.870590000000     0.467860000000     0          
H2       H      0.800940000000     0.916580000000     0.395650000000     0          
H3       H      0.797840000000     0.872400000000     0.350300000000     0          
O6?      O      0.725000000000     0.817600000000     0.323000000000     0          
Zr1      Zr     0.699400000000     0.764700000000     0.300600000000     0          
N1       N      0.751500000000     0.948110000000     0.500000000000     0          
C3       C      0.750000000000     0.936950000000     0.436950000000     0          
C4       C      0.750000000000     0.908500000000     0.408500000000     0          
C7       C      0.750000000000     0.859400000000     0.359400000000     0          
C8       C      0.750000000000     0.826800000000     0.326800000000     0          
O3       O      0.680790000000     0.751370000000     0.248630000000     0          
Zr2?     Zr     0.720580000000     0.783920000000     0.216080000000     0          
C1       C      0.109300000000     0.752900000000     0.482670000000     0          
C2       C      0.071820000000     0.750900000000     0.470960000000     0          
C5       C      0.096400000000     0.780100000000     0.391000000000     0          
C6       C      0.123000000000     0.777800000000     0.364520000000     0          
O1       O      0.191200000000     0.718300000000     0.332000000000     0          
H1       H      0.129410000000     0.753950000000     0.467860000000     0          
H2       H      0.083420000000     0.800940000000     0.395650000000     0          
H3       H      0.127600000000     0.797840000000     0.350300000000     0          
O6?      O      0.182400000000     0.725000000000     0.323000000000     0          
Zr1      Zr     0.235300000000     0.699400000000     0.300600000000     0          
N1       N      0.051890000000     0.751500000000     0.500000000000     0          
C3       C      0.063050000000     0.750000000000     0.436950000000     0          
C4       C      0.091500000000     0.750000000000     0.408500000000     0          
C7       C      0.140600000000     0.750000000000     0.359400000000     0          
C8       C      0.173200000000     0.750000000000     0.326800000000     0          
O3       O      0.248630000000     0.680790000000     0.248630000000     0          
Zr2?     Zr     0.216080000000     0.720580000000     0.216080000000     0          
C1       C      0.890700000000     0.247100000000     0.482670000000     0          
C2       C      0.928180000000     0.249100000000     0.470960000000     0          
C5       C      0.903600000000     0.219900000000     0.391000000000     0          
C6       C      0.877000000000     0.222200000000     0.364520000000     0          
O1       O      0.808800000000     0.281700000000     0.332000000000     0          
H1       H      0.870590000000     0.246050000000     0.467860000000     0          
H2       H      0.916580000000     0.199060000000     0.395650000000     0          
H3       H      0.872400000000     0.202160000000     0.350300000000     0          
O6?      O      0.817600000000     0.275000000000     0.323000000000     0          
Zr1      Zr     0.764700000000     0.300600000000     0.300600000000     0          
N1       N      0.948110000000     0.248500000000     0.500000000000     0          
C3       C      0.936950000000     0.250000000000     0.436950000000     0          
C4       C      0.908500000000     0.250000000000     0.408500000000     0          
C7       C      0.859400000000     0.250000000000     0.359400000000     0          
C8       C      0.826800000000     0.250000000000     0.326800000000     0          
O3       O      0.751370000000     0.319210000000     0.248630000000     0          
Zr2?     Zr     0.783920000000     0.279420000000     0.216080000000     0          
C1       C      0.517330000000     0.752900000000     0.890700000000     0          
C2       C      0.529040000000     0.750900000000     0.928180000000     0          
C5       C      0.609000000000     0.780100000000     0.903600000000     0          
C6       C      0.635480000000     0.777800000000     0.877000000000     0          
O1       O      0.668000000000     0.718300000000     0.808800000000     0          
H1       H      0.532140000000     0.753950000000     0.870590000000     0          
H2       H      0.604350000000     0.800940000000     0.916580000000     0          
H3       H      0.649700000000     0.797840000000     0.872400000000     0          
O6?      O      0.677000000000     0.725000000000     0.817600000000     0          
C3       C      0.563050000000     0.750000000000     0.936950000000     0          
C4       C      0.591500000000     0.750000000000     0.908500000000     0          
C7       C      0.640600000000     0.750000000000     0.859400000000     0          
C8       C      0.673200000000     0.750000000000     0.826800000000     0          
C1       C      0.247100000000     0.517330000000     0.890700000000     0          
C2       C      0.249100000000     0.529040000000     0.928180000000     0          
C5       C      0.219900000000     0.609000000000     0.903600000000     0          
C6       C      0.222200000000     0.635480000000     0.877000000000     0          
O1       O      0.281700000000     0.668000000000     0.808800000000     0          
H1       H      0.246050000000     0.532140000000     0.870590000000     0          
H2       H      0.199060000000     0.604350000000     0.916580000000     0          
H3       H      0.202160000000     0.649700000000     0.872400000000     0          
O6?      O      0.275000000000     0.677000000000     0.817600000000     0          
C3       C      0.250000000000     0.563050000000     0.936950000000     0          
C4       C      0.250000000000     0.591500000000     0.908500000000     0          
C7       C      0.250000000000     0.640600000000     0.859400000000     0          
C8       C      0.250000000000     0.673200000000     0.826800000000     0          
C1       C      0.482670000000     0.247100000000     0.890700000000     0          
C2       C      0.470960000000     0.249100000000     0.928180000000     0          
C5       C      0.391000000000     0.219900000000     0.903600000000     0          
C6       C      0.364520000000     0.222200000000     0.877000000000     0          
O1       O      0.332000000000     0.281700000000     0.808800000000     0          
H1       H      0.467860000000     0.246050000000     0.870590000000     0          
H2       H      0.395650000000     0.199060000000     0.916580000000     0          
H3       H      0.350300000000     0.202160000000     0.872400000000     0          
O6?      O      0.323000000000     0.275000000000     0.817600000000     0          
C3       C      0.436950000000     0.250000000000     0.936950000000     0          
C4       C      0.408500000000     0.250000000000     0.908500000000     0          
C7       C      0.359400000000     0.250000000000     0.859400000000     0          
C8       C      0.326800000000     0.250000000000     0.826800000000     0          
C1       C      0.752900000000     0.482670000000     0.890700000000     0          
C2       C      0.750900000000     0.470960000000     0.928180000000     0          
C5       C      0.780100000000     0.391000000000     0.903600000000     0          
C6       C      0.777800000000     0.364520000000     0.877000000000     0          
O1       O      0.718300000000     0.332000000000     0.808800000000     0          
H1       H      0.753950000000     0.467860000000     0.870590000000     0          
H2       H      0.800940000000     0.395650000000     0.916580000000     0          
H3       H      0.797840000000     0.350300000000     0.872400000000     0          
O6?      O      0.725000000000     0.323000000000     0.817600000000     0          
C3       C      0.750000000000     0.436950000000     0.936950000000     0          
C4       C      0.750000000000     0.408500000000     0.908500000000     0          
C7       C      0.750000000000     0.359400000000     0.859400000000     0          
C8       C      0.750000000000     0.326800000000     0.826800000000     0          
C1       C      0.517330000000     0.247100000000     0.109300000000     0          
C2       C      0.529040000000     0.249100000000     0.071820000000     0          
C5       C      0.609000000000     0.219900000000     0.096400000000     0          
C6       C      0.635480000000     0.222200000000     0.123000000000     0          
O1       O      0.668000000000     0.281700000000     0.191200000000     0          
H1       H      0.532140000000     0.246050000000     0.129410000000     0          
H2       H      0.604350000000     0.199060000000     0.083420000000     0          
H3       H      0.649700000000     0.202160000000     0.127600000000     0          
O6?      O      0.677000000000     0.275000000000     0.182400000000     0          
C3       C      0.563050000000     0.250000000000     0.063050000000     0          
C4       C      0.591500000000     0.250000000000     0.091500000000     0          
C7       C      0.640600000000     0.250000000000     0.140600000000     0          
C8       C      0.673200000000     0.250000000000     0.173200000000     0          
C1       C      0.752900000000     0.517330000000     0.109300000000     0          
C2       C      0.750900000000     0.529040000000     0.071820000000     0          
C5       C      0.780100000000     0.609000000000     0.096400000000     0          
C6       C      0.777800000000     0.635480000000     0.123000000000     0          
O1       O      0.718300000000     0.668000000000     0.191200000000     0          
H1       H      0.753950000000     0.532140000000     0.129410000000     0          
H2       H      0.800940000000     0.604350000000     0.083420000000     0          
H3       H      0.797840000000     0.649700000000     0.127600000000     0          
O6?      O      0.725000000000     0.677000000000     0.182400000000     0          
C3       C      0.750000000000     0.563050000000     0.063050000000     0          
C4       C      0.750000000000     0.591500000000     0.091500000000     0          
C7       C      0.750000000000     0.640600000000     0.140600000000     0          
C8       C      0.750000000000     0.673200000000     0.173200000000     0          
C1       C      0.482670000000     0.752900000000     0.109300000000     0          
C2       C      0.470960000000     0.750900000000     0.071820000000     0          
C5       C      0.391000000000     0.780100000000     0.096400000000     0          
C6       C      0.364520000000     0.777800000000     0.123000000000     0          
O1       O      0.332000000000     0.718300000000     0.191200000000     0          
H1       H      0.467860000000     0.753950000000     0.129410000000     0          
H2       H      0.395650000000     0.800940000000     0.083420000000     0          
H3       H      0.350300000000     0.797840000000     0.127600000000     0          
O6?      O      0.323000000000     0.725000000000     0.182400000000     0          
C3       C      0.436950000000     0.750000000000     0.063050000000     0          
C4       C      0.408500000000     0.750000000000     0.091500000000     0          
C7       C      0.359400000000     0.750000000000     0.140600000000     0          
C8       C      0.326800000000     0.750000000000     0.173200000000     0          
C1       C      0.247100000000     0.482670000000     0.109300000000     0          
C2       C      0.249100000000     0.470960000000     0.071820000000     0          
C5       C      0.219900000000     0.391000000000     0.096400000000     0          
C6       C      0.222200000000     0.364520000000     0.123000000000     0          
O1       O      0.281700000000     0.332000000000     0.191200000000     0          
H1       H      0.246050000000     0.467860000000     0.129410000000     0          
H2       H      0.199060000000     0.395650000000     0.083420000000     0          
H3       H      0.202160000000     0.350300000000     0.127600000000     0          
O6?      O      0.275000000000     0.323000000000     0.182400000000     0          
C3       C      0.250000000000     0.436950000000     0.063050000000     0          
C4       C      0.250000000000     0.408500000000     0.091500000000     0          
C7       C      0.250000000000     0.359400000000     0.140600000000     0          
C8       C      0.250000000000     0.326800000000     0.173200000000     0          
C1       C      0.890700000000     0.517330000000     0.752900000000     0          
C2       C      0.928180000000     0.529040000000     0.750900000000     0          
C5       C      0.903600000000     0.609000000000     0.780100000000     0          
C6       C      0.877000000000     0.635480000000     0.777800000000     0          
O1       O      0.808800000000     0.668000000000     0.718300000000     0          
H1       H      0.870590000000     0.532140000000     0.753950000000     0          
H2       H      0.916580000000     0.604350000000     0.800940000000     0          
H3       H      0.872400000000     0.649700000000     0.797840000000     0          
O6?      O      0.817600000000     0.677000000000     0.725000000000     0          
C3       C      0.936950000000     0.563050000000     0.750000000000     0          
C4       C      0.908500000000     0.591500000000     0.750000000000     0          
C7       C      0.859400000000     0.640600000000     0.750000000000     0          
C8       C      0.826800000000     0.673200000000     0.750000000000     0          
C1       C      0.482670000000     0.890700000000     0.752900000000     0          
C2       C      0.470960000000     0.928180000000     0.750900000000     0          
C5       C      0.391000000000     0.903600000000     0.780100000000     0          
C6       C      0.364520000000     0.877000000000     0.777800000000     0          
O1       O      0.332000000000     0.808800000000     0.718300000000     0          
H1       H      0.467860000000     0.870590000000     0.753950000000     0          
H2       H      0.395650000000     0.916580000000     0.800940000000     0          
H3       H      0.350300000000     0.872400000000     0.797840000000     0          
O6?      O      0.323000000000     0.817600000000     0.725000000000     0          
C3       C      0.436950000000     0.936950000000     0.750000000000     0          
C4       C      0.408500000000     0.908500000000     0.750000000000     0          
C7       C      0.359400000000     0.859400000000     0.750000000000     0          
C8       C      0.326800000000     0.826800000000     0.750000000000     0          
C1       C      0.109300000000     0.482670000000     0.752900000000     0          
C2       C      0.071820000000     0.470960000000     0.750900000000     0          
C5       C      0.096400000000     0.391000000000     0.780100000000     0          
C6       C      0.123000000000     0.364520000000     0.777800000000     0          
O1       O      0.191200000000     0.332000000000     0.718300000000     0          
H1       H      0.129410000000     0.467860000000     0.753950000000     0          
H2       H      0.083420000000     0.395650000000     0.800940000000     0          
H3       H      0.127600000000     0.350300000000     0.797840000000     0          
O6?      O      0.182400000000     0.323000000000     0.725000000000     0          
C3       C      0.063050000000     0.436950000000     0.750000000000     0          
C4       C      0.091500000000     0.408500000000     0.750000000000     0          
C7       C      0.140600000000     0.359400000000     0.750000000000     0          
C8       C      0.173200000000     0.326800000000     0.750000000000     0          
C1       C      0.517330000000     0.109300000000     0.752900000000     0          
C2       C      0.529040000000     0.071820000000     0.750900000000     0          
C5       C      0.609000000000     0.096400000000     0.780100000000     0          
C6       C      0.635480000000     0.123000000000     0.777800000000     0          
O1       O      0.668000000000     0.191200000000     0.718300000000     0          
H1       H      0.532140000000     0.129410000000     0.753950000000     0          
H2       H      0.604350000000     0.083420000000     0.800940000000     0          
H3       H      0.649700000000     0.127600000000     0.797840000000     0          
O6?      O      0.677000000000     0.182400000000     0.725000000000     0          
C3       C      0.563050000000     0.063050000000     0.750000000000     0          
C4       C      0.591500000000     0.091500000000     0.750000000000     0          
C7       C      0.640600000000     0.140600000000     0.750000000000     0          
C8       C      0.673200000000     0.173200000000     0.750000000000     0          
C1       C      0.890700000000     0.482670000000     0.247100000000     0          
C2       C      0.928180000000     0.470960000000     0.249100000000     0          
C5       C      0.903600000000     0.391000000000     0.219900000000     0          
C6       C      0.877000000000     0.364520000000     0.222200000000     0          
O1       O      0.808800000000     0.332000000000     0.281700000000     0          
H1       H      0.870590000000     0.467860000000     0.246050000000     0          
H2       H      0.916580000000     0.395650000000     0.199060000000     0          
H3       H      0.872400000000     0.350300000000     0.202160000000     0          
O6?      O      0.817600000000     0.323000000000     0.275000000000     0          
C3       C      0.936950000000     0.436950000000     0.250000000000     0          
C4       C      0.908500000000     0.408500000000     0.250000000000     0          
C7       C      0.859400000000     0.359400000000     0.250000000000     0          
C8       C      0.826800000000     0.326800000000     0.250000000000     0          
C1       C      0.517330000000     0.890700000000     0.247100000000     0          
C2       C      0.529040000000     0.928180000000     0.249100000000     0          
C5       C      0.609000000000     0.903600000000     0.219900000000     0          
C6       C      0.635480000000     0.877000000000     0.222200000000     0          
O1       O      0.668000000000     0.808800000000     0.281700000000     0          
H1       H      0.532140000000     0.870590000000     0.246050000000     0          
H2       H      0.604350000000     0.916580000000     0.199060000000     0          
H3       H      0.649700000000     0.872400000000     0.202160000000     0          
O6?      O      0.677000000000     0.817600000000     0.275000000000     0          
C3       C      0.563050000000     0.936950000000     0.250000000000     0          
C4       C      0.591500000000     0.908500000000     0.250000000000     0          
C7       C      0.640600000000     0.859400000000     0.250000000000     0          
C8       C      0.673200000000     0.826800000000     0.250000000000     0          
C1       C      0.109300000000     0.517330000000     0.247100000000     0          
C2       C      0.071820000000     0.529040000000     0.249100000000     0          
C5       C      0.096400000000     0.609000000000     0.219900000000     0          
C6       C      0.123000000000     0.635480000000     0.222200000000     0          
O1       O      0.191200000000     0.668000000000     0.281700000000     0          
H1       H      0.129410000000     0.532140000000     0.246050000000     0          
H2       H      0.083420000000     0.604350000000     0.199060000000     0          
H3       H      0.127600000000     0.649700000000     0.202160000000     0          
O6?      O      0.182400000000     0.677000000000     0.275000000000     0          
C3       C      0.063050000000     0.563050000000     0.250000000000     0          
C4       C      0.091500000000     0.591500000000     0.250000000000     0          
C7       C      0.140600000000     0.640600000000     0.250000000000     0          
C8       C      0.173200000000     0.673200000000     0.250000000000     0          
C1       C      0.482670000000     0.109300000000     0.247100000000     0          
C2       C      0.470960000000     0.071820000000     0.249100000000     0          
C5       C      0.391000000000     0.096400000000     0.219900000000     0          
C6       C      0.364520000000     0.123000000000     0.222200000000     0          
O1       O      0.332000000000     0.191200000000     0.281700000000     0          
H1       H      0.467860000000     0.129410000000     0.246050000000     0          
H2       H      0.395650000000     0.083420000000     0.199060000000     0          
H3       H      0.350300000000     0.127600000000     0.202160000000     0          
O6?      O      0.323000000000     0.182400000000     0.275000000000     0          
C3       C      0.436950000000     0.063050000000     0.250000000000     0          
C4       C      0.408500000000     0.091500000000     0.250000000000     0          
C7       C      0.359400000000     0.140600000000     0.250000000000     0          
C8       C      0.326800000000     0.173200000000     0.250000000000     0          
C1       C      0.752900000000     0.890700000000     0.517330000000     0          
C2       C      0.750900000000     0.928180000000     0.529040000000     0          
C5       C      0.780100000000     0.903600000000     0.609000000000     0          
C6       C      0.777800000000     0.877000000000     0.635480000000     0          
O1       O      0.718300000000     0.808800000000     0.668000000000     0          
H1       H      0.753950000000     0.870590000000     0.532140000000     0          
H2       H      0.800940000000     0.916580000000     0.604350000000     0          
H3       H      0.797840000000     0.872400000000     0.649700000000     0          
O6?      O      0.725000000000     0.817600000000     0.677000000000     0          
C3       C      0.750000000000     0.936950000000     0.563050000000     0          
C4       C      0.750000000000     0.908500000000     0.591500000000     0          
C7       C      0.750000000000     0.859400000000     0.640600000000     0          
C8       C      0.750000000000     0.826800000000     0.673200000000     0          
C1       C      0.752900000000     0.109300000000     0.482670000000     0          
C2       C      0.750900000000     0.071820000000     0.470960000000     0          
C5       C      0.780100000000     0.096400000000     0.391000000000     0          
C6       C      0.777800000000     0.123000000000     0.364520000000     0          
O1       O      0.718300000000     0.191200000000     0.332000000000     0          
H1       H      0.753950000000     0.129410000000     0.467860000000     0          
H2       H      0.800940000000     0.083420000000     0.395650000000     0          
H3       H      0.797840000000     0.127600000000     0.350300000000     0          
O6?      O      0.725000000000     0.182400000000     0.323000000000     0          
C3       C      0.750000000000     0.063050000000     0.436950000000     0          
C4       C      0.750000000000     0.091500000000     0.408500000000     0          
C7       C      0.750000000000     0.140600000000     0.359400000000     0          
C8       C      0.750000000000     0.173200000000     0.326800000000     0          
C1       C      0.890700000000     0.752900000000     0.482670000000     0          
C2       C      0.928180000000     0.750900000000     0.470960000000     0          
C5       C      0.903600000000     0.780100000000     0.391000000000     0          
C6       C      0.877000000000     0.777800000000     0.364520000000     0          
O1       O      0.808800000000     0.718300000000     0.332000000000     0          
H1       H      0.870590000000     0.753950000000     0.467860000000     0          
H2       H      0.916580000000     0.800940000000     0.395650000000     0          
H3       H      0.872400000000     0.797840000000     0.350300000000     0          
O6?      O      0.817600000000     0.725000000000     0.323000000000     0          
C3       C      0.936950000000     0.750000000000     0.436950000000     0          
C4       C      0.908500000000     0.750000000000     0.408500000000     0          
C7       C      0.859400000000     0.750000000000     0.359400000000     0          
C8       C      0.826800000000     0.750000000000     0.326800000000     0          
C1       C      0.247100000000     0.890700000000     0.482670000000     0          
C2       C      0.249100000000     0.928180000000     0.470960000000     0          
C5       C      0.219900000000     0.903600000000     0.391000000000     0          
C6       C      0.222200000000     0.877000000000     0.364520000000     0          
O1       O      0.281700000000     0.808800000000     0.332000000000     0          
H1       H      0.246050000000     0.870590000000     0.467860000000     0          
H2       H      0.199060000000     0.916580000000     0.395650000000     0          
H3       H      0.202160000000     0.872400000000     0.350300000000     0          
O6?      O      0.275000000000     0.817600000000     0.323000000000     0          
C3       C      0.250000000000     0.936950000000     0.436950000000     0          
C4       C      0.250000000000     0.908500000000     0.408500000000     0          
C7       C      0.250000000000     0.859400000000     0.359400000000     0          
C8       C      0.250000000000     0.826800000000     0.326800000000     0          
C1       C      0.109300000000     0.247100000000     0.482670000000     0          
C2       C      0.071820000000     0.249100000000     0.470960000000     0          
C5       C      0.096400000000     0.219900000000     0.391000000000     0          
C6       C      0.123000000000     0.222200000000     0.364520000000     0          
O1       O      0.191200000000     0.281700000000     0.332000000000     0          
H1       H      0.129410000000     0.246050000000     0.467860000000     0          
H2       H      0.083420000000     0.199060000000     0.395650000000     0          
H3       H      0.127600000000     0.202160000000     0.350300000000     0          
O6?      O      0.182400000000     0.275000000000     0.323000000000     0          
C3       C      0.063050000000     0.250000000000     0.436950000000     0          
C4       C      0.091500000000     0.250000000000     0.408500000000     0          
C7       C      0.140600000000     0.250000000000     0.359400000000     0          
C8       C      0.173200000000     0.250000000000     0.326800000000     0          
C1       C      0.247100000000     0.109300000000     0.517330000000     0          
C2       C      0.249100000000     0.071820000000     0.529040000000     0          
C5       C      0.219900000000     0.096400000000     0.609000000000     0          
C6       C      0.222200000000     0.123000000000     0.635480000000     0          
O1       O      0.281700000000     0.191200000000     0.668000000000     0          
H1       H      0.246050000000     0.129410000000     0.532140000000     0          
H2       H      0.199060000000     0.083420000000     0.604350000000     0          
H3       H      0.202160000000     0.127600000000     0.649700000000     0          
O6?      O      0.275000000000     0.182400000000     0.677000000000     0          
C3       C      0.250000000000     0.063050000000     0.563050000000     0          
C4       C      0.250000000000     0.091500000000     0.591500000000     0          
C7       C      0.250000000000     0.140600000000     0.640600000000     0          
C8       C      0.250000000000     0.173200000000     0.673200000000     0          
C1       C      0.890700000000     0.247100000000     0.517330000000     0          
C2       C      0.928180000000     0.249100000000     0.529040000000     0          
C5       C      0.903600000000     0.219900000000     0.609000000000     0          
C6       C      0.877000000000     0.222200000000     0.635480000000     0          
O1       O      0.808800000000     0.281700000000     0.668000000000     0          
H1       H      0.870590000000     0.246050000000     0.532140000000     0          
H2       H      0.916580000000     0.199060000000     0.604350000000     0          
H3       H      0.872400000000     0.202160000000     0.649700000000     0          
O6?      O      0.817600000000     0.275000000000     0.677000000000     0          
C3       C      0.936950000000     0.250000000000     0.563050000000     0          
C4       C      0.908500000000     0.250000000000     0.591500000000     0          
C7       C      0.859400000000     0.250000000000     0.640600000000     0          
C8       C      0.826800000000     0.250000000000     0.673200000000     0          
C1       C      0.109300000000     0.752900000000     0.517330000000     0          
C2       C      0.071820000000     0.750900000000     0.529040000000     0          
C5       C      0.096400000000     0.780100000000     0.609000000000     0          
C6       C      0.123000000000     0.777800000000     0.635480000000     0          
O1       O      0.191200000000     0.718300000000     0.668000000000     0          
H1       H      0.129410000000     0.753950000000     0.532140000000     0          
H2       H      0.083420000000     0.800940000000     0.604350000000     0          
H3       H      0.127600000000     0.797840000000     0.649700000000     0          
O6?      O      0.182400000000     0.725000000000     0.677000000000     0          
C3       C      0.063050000000     0.750000000000     0.563050000000     0          
C4       C      0.091500000000     0.750000000000     0.591500000000     0          
C7       C      0.140600000000     0.750000000000     0.640600000000     0          
C8       C      0.173200000000     0.750000000000     0.673200000000     0          
C1       C      0.982670000000     0.747100000000     0.609300000000     0          
C2       C      0.970960000000     0.749100000000     0.571820000000     0          
C5       C      0.891000000000     0.719900000000     0.596400000000     0          
C6       C      0.864520000000     0.722200000000     0.623000000000     0          
O1       O      0.832000000000     0.781700000000     0.691200000000     0          
H1       H      0.967860000000     0.746050000000     0.629410000000     0          
H2       H      0.895650000000     0.699060000000     0.583420000000     0          
H3       H      0.850300000000     0.702160000000     0.627600000000     0          
O6?      O      0.823000000000     0.775000000000     0.682400000000     0          
Zr1      Zr     0.800600000000     0.800600000000     0.735300000000     0          
N1       N      0.000000000000     0.748500000000     0.551890000000     0          
C9       C      0.000000000000     0.799100000000     0.500000000000     0          
O5       O      0.000000000000     0.829900000000     0.500000000000     0          
O3       O      0.748630000000     0.819210000000     0.748630000000     0          
Zr2?     Zr     0.716080000000     0.779420000000     0.716080000000     0          
O4       O      0.782410000000     0.782410000000     0.782410000000     0          
C1       C      0.252900000000     0.982670000000     0.609300000000     0          
C2       C      0.250900000000     0.970960000000     0.571820000000     0          
C5       C      0.280100000000     0.891000000000     0.596400000000     0          
C6       C      0.277800000000     0.864520000000     0.623000000000     0          
O1       O      0.218300000000     0.832000000000     0.691200000000     0          
H1       H      0.253950000000     0.967860000000     0.629410000000     0          
H2       H      0.300940000000     0.895650000000     0.583420000000     0          
H3       H      0.297840000000     0.850300000000     0.627600000000     0          
O6?      O      0.225000000000     0.823000000000     0.682400000000     0          
Zr1      Zr     0.199400000000     0.800600000000     0.735300000000     0          
N1       N      0.251500000000     0.000000000000     0.551890000000     0          
C9       C      0.200900000000     0.000000000000     0.500000000000     0          
O5       O      0.170100000000     0.000000000000     0.500000000000     0          
O3       O      0.180790000000     0.748630000000     0.748630000000     0          
Zr2?     Zr     0.220580000000     0.716080000000     0.716080000000     0          
O4       O      0.217590000000     0.782410000000     0.782410000000     0          
C1       C      0.017330000000     0.252900000000     0.609300000000     0          
C2       C      0.029040000000     0.250900000000     0.571820000000     0          
C5       C      0.109000000000     0.280100000000     0.596400000000     0          
C6       C      0.135480000000     0.277800000000     0.623000000000     0          
O1       O      0.168000000000     0.218300000000     0.691200000000     0          
H1       H      0.032140000000     0.253950000000     0.629410000000     0          
H2       H      0.104350000000     0.300940000000     0.583420000000     0          
H3       H      0.149700000000     0.297840000000     0.627600000000     0          
O6?      O      0.177000000000     0.225000000000     0.682400000000     0          
Zr1      Zr     0.199400000000     0.199400000000     0.735300000000     0          
N1       N      0.000000000000     0.251500000000     0.551890000000     0          
C9       C      0.000000000000     0.200900000000     0.500000000000     0          
O5       O      0.000000000000     0.170100000000     0.500000000000     0          
O3       O      0.251370000000     0.180790000000     0.748630000000     0          
Zr2?     Zr     0.283920000000     0.220580000000     0.716080000000     0          
O4       O      0.217590000000     0.217590000000     0.782410000000     0          
C1       C      0.747100000000     0.017330000000     0.609300000000     0          
C2       C      0.749100000000     0.029040000000     0.571820000000     0          
C5       C      0.719900000000     0.109000000000     0.596400000000     0          
C6       C      0.722200000000     0.135480000000     0.623000000000     0          
O1       O      0.781700000000     0.168000000000     0.691200000000     0          
H1       H      0.746050000000     0.032140000000     0.629410000000     0          
H2       H      0.699060000000     0.104350000000     0.583420000000     0          
H3       H      0.702160000000     0.149700000000     0.627600000000     0          
O6?      O      0.775000000000     0.177000000000     0.682400000000     0          
Zr1      Zr     0.800600000000     0.199400000000     0.735300000000     0          
N1       N      0.748500000000     0.000000000000     0.551890000000     0          
C9       C      0.799100000000     0.000000000000     0.500000000000     0          
O5       O      0.829900000000     0.000000000000     0.500000000000     0          
O3       O      0.819210000000     0.251370000000     0.748630000000     0          
Zr2?     Zr     0.779420000000     0.283920000000     0.716080000000     0          
O4       O      0.782410000000     0.217590000000     0.782410000000     0          
C1       C      0.982670000000     0.252900000000     0.390700000000     0          
C2       C      0.970960000000     0.250900000000     0.428180000000     0          
C5       C      0.891000000000     0.280100000000     0.403600000000     0          
C6       C      0.864520000000     0.277800000000     0.377000000000     0          
O1       O      0.832000000000     0.218300000000     0.308800000000     0          
H1       H      0.967860000000     0.253950000000     0.370590000000     0          
H2       H      0.895650000000     0.300940000000     0.416580000000     0          
H3       H      0.850300000000     0.297840000000     0.372400000000     0          
O6?      O      0.823000000000     0.225000000000     0.317600000000     0          
Zr1      Zr     0.800600000000     0.199400000000     0.264700000000     0          
N1       N      0.000000000000     0.251500000000     0.448110000000     0          
O3       O      0.748630000000     0.180790000000     0.251370000000     0          
Zr2?     Zr     0.716080000000     0.220580000000     0.283920000000     0          
O4       O      0.782410000000     0.217590000000     0.217590000000     0          
C1       C      0.747100000000     0.982670000000     0.390700000000     0          
C2       C      0.749100000000     0.970960000000     0.428180000000     0          
C5       C      0.719900000000     0.891000000000     0.403600000000     0          
C6       C      0.722200000000     0.864520000000     0.377000000000     0          
O1       O      0.781700000000     0.832000000000     0.308800000000     0          
H1       H      0.746050000000     0.967860000000     0.370590000000     0          
H2       H      0.699060000000     0.895650000000     0.416580000000     0          
H3       H      0.702160000000     0.850300000000     0.372400000000     0          
O6?      O      0.775000000000     0.823000000000     0.317600000000     0          
Zr1      Zr     0.800600000000     0.800600000000     0.264700000000     0          
N1       N      0.748500000000     0.000000000000     0.448110000000     0          
O3       O      0.819210000000     0.748630000000     0.251370000000     0          
Zr2?     Zr     0.779420000000     0.716080000000     0.283920000000     0          
O4       O      0.782410000000     0.782410000000     0.217590000000     0          
C1       C      0.017330000000     0.747100000000     0.390700000000     0          
C2       C      0.029040000000     0.749100000000     0.428180000000     0          
C5       C      0.109000000000     0.719900000000     0.403600000000     0          
C6       C      0.135480000000     0.722200000000     0.377000000000     0          
O1       O      0.168000000000     0.781700000000     0.308800000000     0          
H1       H      0.032140000000     0.746050000000     0.370590000000     0          
H2       H      0.104350000000     0.699060000000     0.416580000000     0          
H3       H      0.149700000000     0.702160000000     0.372400000000     0          
O6?      O      0.177000000000     0.775000000000     0.317600000000     0          
Zr1      Zr     0.199400000000     0.800600000000     0.264700000000     0          
N1       N      0.000000000000     0.748500000000     0.448110000000     0          
O3       O      0.251370000000     0.819210000000     0.251370000000     0          
Zr2?     Zr     0.283920000000     0.779420000000     0.283920000000     0          
O4       O      0.217590000000     0.782410000000     0.217590000000     0          
C1       C      0.252900000000     0.017330000000     0.390700000000     0          
C2       C      0.250900000000     0.029040000000     0.428180000000     0          
C5       C      0.280100000000     0.109000000000     0.403600000000     0          
C6       C      0.277800000000     0.135480000000     0.377000000000     0          
O1       O      0.218300000000     0.168000000000     0.308800000000     0          
H1       H      0.253950000000     0.032140000000     0.370590000000     0          
H2       H      0.300940000000     0.104350000000     0.416580000000     0          
H3       H      0.297840000000     0.149700000000     0.372400000000     0          
O6?      O      0.225000000000     0.177000000000     0.317600000000     0          
Zr1      Zr     0.199400000000     0.199400000000     0.264700000000     0          
N1       N      0.251500000000     0.000000000000     0.448110000000     0          
O3       O      0.180790000000     0.251370000000     0.251370000000     0          
Zr2?     Zr     0.220580000000     0.283920000000     0.283920000000     0          
O4       O      0.217590000000     0.217590000000     0.217590000000     0          
C1       C      0.609300000000     0.982670000000     0.747100000000     0          
C2       C      0.571820000000     0.970960000000     0.749100000000     0          
C5       C      0.596400000000     0.891000000000     0.719900000000     0          
C6       C      0.623000000000     0.864520000000     0.722200000000     0          
O1       O      0.691200000000     0.832000000000     0.781700000000     0          
H1       H      0.629410000000     0.967860000000     0.746050000000     0          
H2       H      0.583420000000     0.895650000000     0.699060000000     0          
H3       H      0.627600000000     0.850300000000     0.702160000000     0          
O6?      O      0.682400000000     0.823000000000     0.775000000000     0          
Zr1      Zr     0.735300000000     0.800600000000     0.800600000000     0          
N1       N      0.551890000000     0.000000000000     0.748500000000     0          
C9       C      0.500000000000     0.000000000000     0.799100000000     0          
O5       O      0.500000000000     0.000000000000     0.829900000000     0          
O3       O      0.748630000000     0.748630000000     0.819210000000     0          
Zr2?     Zr     0.716080000000     0.716080000000     0.779420000000     0          
C1       C      0.017330000000     0.609300000000     0.747100000000     0          
C2       C      0.029040000000     0.571820000000     0.749100000000     0          
C5       C      0.109000000000     0.596400000000     0.719900000000     0          
C6       C      0.135480000000     0.623000000000     0.722200000000     0          
O1       O      0.168000000000     0.691200000000     0.781700000000     0          
H1       H      0.032140000000     0.629410000000     0.746050000000     0          
H2       H      0.104350000000     0.583420000000     0.699060000000     0          
H3       H      0.149700000000     0.627600000000     0.702160000000     0          
O6?      O      0.177000000000     0.682400000000     0.775000000000     0          
Zr1      Zr     0.199400000000     0.735300000000     0.800600000000     0          
N1       N      0.000000000000     0.551890000000     0.748500000000     0          
C9       C      0.000000000000     0.500000000000     0.799100000000     0          
O5       O      0.000000000000     0.500000000000     0.829900000000     0          
O3       O      0.251370000000     0.748630000000     0.819210000000     0          
Zr2?     Zr     0.283920000000     0.716080000000     0.779420000000     0          
C1       C      0.390700000000     0.017330000000     0.747100000000     0          
C2       C      0.428180000000     0.029040000000     0.749100000000     0          
C5       C      0.403600000000     0.109000000000     0.719900000000     0          
C6       C      0.377000000000     0.135480000000     0.722200000000     0          
O1       O      0.308800000000     0.168000000000     0.781700000000     0          
H1       H      0.370590000000     0.032140000000     0.746050000000     0          
H2       H      0.416580000000     0.104350000000     0.699060000000     0          
H3       H      0.372400000000     0.149700000000     0.702160000000     0          
O6?      O      0.317600000000     0.177000000000     0.775000000000     0          
Zr1      Zr     0.264700000000     0.199400000000     0.800600000000     0          
N1       N      0.448110000000     0.000000000000     0.748500000000     0          
O3       O      0.251370000000     0.251370000000     0.819210000000     0          
Zr2?     Zr     0.283920000000     0.283920000000     0.779420000000     0          
C1       C      0.982670000000     0.390700000000     0.747100000000     0          
C2       C      0.970960000000     0.428180000000     0.749100000000     0          
C5       C      0.891000000000     0.403600000000     0.719900000000     0          
C6       C      0.864520000000     0.377000000000     0.722200000000     0          
O1       O      0.832000000000     0.308800000000     0.781700000000     0          
H1       H      0.967860000000     0.370590000000     0.746050000000     0          
H2       H      0.895650000000     0.416580000000     0.699060000000     0          
H3       H      0.850300000000     0.372400000000     0.702160000000     0          
O6?      O      0.823000000000     0.317600000000     0.775000000000     0          
Zr1      Zr     0.800600000000     0.264700000000     0.800600000000     0          
N1       N      0.000000000000     0.448110000000     0.748500000000     0          
O3       O      0.748630000000     0.251370000000     0.819210000000     0          
Zr2?     Zr     0.716080000000     0.283920000000     0.779420000000     0          
C1       C      0.609300000000     0.017330000000     0.252900000000     0          
C2       C      0.571820000000     0.029040000000     0.250900000000     0          
C5       C      0.596400000000     0.109000000000     0.280100000000     0          
C6       C      0.623000000000     0.135480000000     0.277800000000     0          
O1       O      0.691200000000     0.168000000000     0.218300000000     0          
H1       H      0.629410000000     0.032140000000     0.253950000000     0          
H2       H      0.583420000000     0.104350000000     0.300940000000     0          
H3       H      0.627600000000     0.149700000000     0.297840000000     0          
O6?      O      0.682400000000     0.177000000000     0.225000000000     0          
Zr1      Zr     0.735300000000     0.199400000000     0.199400000000     0          
N1       N      0.551890000000     0.000000000000     0.251500000000     0          
C9       C      0.500000000000     0.000000000000     0.200900000000     0          
O5       O      0.500000000000     0.000000000000     0.170100000000     0          
O3       O      0.748630000000     0.251370000000     0.180790000000     0          
Zr2?     Zr     0.716080000000     0.283920000000     0.220580000000     0          
C1       C      0.982670000000     0.609300000000     0.252900000000     0          
C2       C      0.970960000000     0.571820000000     0.250900000000     0          
C5       C      0.891000000000     0.596400000000     0.280100000000     0          
C6       C      0.864520000000     0.623000000000     0.277800000000     0          
O1       O      0.832000000000     0.691200000000     0.218300000000     0          
H1       H      0.967860000000     0.629410000000     0.253950000000     0          
H2       H      0.895650000000     0.583420000000     0.300940000000     0          
H3       H      0.850300000000     0.627600000000     0.297840000000     0          
O6?      O      0.823000000000     0.682400000000     0.225000000000     0          
Zr1      Zr     0.800600000000     0.735300000000     0.199400000000     0          
N1       N      0.000000000000     0.551890000000     0.251500000000     0          
C9       C      0.000000000000     0.500000000000     0.200900000000     0          
O5       O      0.000000000000     0.500000000000     0.170100000000     0          
O3       O      0.748630000000     0.748630000000     0.180790000000     0          
Zr2?     Zr     0.716080000000     0.716080000000     0.220580000000     0          
C1       C      0.390700000000     0.982670000000     0.252900000000     0          
C2       C      0.428180000000     0.970960000000     0.250900000000     0          
C5       C      0.403600000000     0.891000000000     0.280100000000     0          
C6       C      0.377000000000     0.864520000000     0.277800000000     0          
O1       O      0.308800000000     0.832000000000     0.218300000000     0          
H1       H      0.370590000000     0.967860000000     0.253950000000     0          
H2       H      0.416580000000     0.895650000000     0.300940000000     0          
H3       H      0.372400000000     0.850300000000     0.297840000000     0          
O6?      O      0.317600000000     0.823000000000     0.225000000000     0          
Zr1      Zr     0.264700000000     0.800600000000     0.199400000000     0          
N1       N      0.448110000000     0.000000000000     0.251500000000     0          
O3       O      0.251370000000     0.748630000000     0.180790000000     0          
Zr2?     Zr     0.283920000000     0.716080000000     0.220580000000     0          
C1       C      0.017330000000     0.390700000000     0.252900000000     0          
C2       C      0.029040000000     0.428180000000     0.250900000000     0          
C5       C      0.109000000000     0.403600000000     0.280100000000     0          
C6       C      0.135480000000     0.377000000000     0.277800000000     0          
O1       O      0.168000000000     0.308800000000     0.218300000000     0          
H1       H      0.032140000000     0.370590000000     0.253950000000     0          
H2       H      0.104350000000     0.416580000000     0.300940000000     0          
H3       H      0.149700000000     0.372400000000     0.297840000000     0          
O6?      O      0.177000000000     0.317600000000     0.225000000000     0          
Zr1      Zr     0.199400000000     0.264700000000     0.199400000000     0          
N1       N      0.000000000000     0.448110000000     0.251500000000     0          
O3       O      0.251370000000     0.251370000000     0.180790000000     0          
Zr2?     Zr     0.283920000000     0.283920000000     0.220580000000     0          
C1       C      0.747100000000     0.609300000000     0.982670000000     0          
C2       C      0.749100000000     0.571820000000     0.970960000000     0          
C5       C      0.719900000000     0.596400000000     0.891000000000     0          
C6       C      0.722200000000     0.623000000000     0.864520000000     0          
O1       O      0.781700000000     0.691200000000     0.832000000000     0          
H1       H      0.746050000000     0.629410000000     0.967860000000     0          
H2       H      0.699060000000     0.583420000000     0.895650000000     0          
H3       H      0.702160000000     0.627600000000     0.850300000000     0          
O6?      O      0.775000000000     0.682400000000     0.823000000000     0          
Zr1      Zr     0.800600000000     0.735300000000     0.800600000000     0          
N1       N      0.748500000000     0.551890000000     0.000000000000     0          
C9       C      0.799100000000     0.500000000000     0.000000000000     0          
O5       O      0.829900000000     0.500000000000     0.000000000000     0          
O3       O      0.819210000000     0.748630000000     0.748630000000     0          
Zr2?     Zr     0.779420000000     0.716080000000     0.716080000000     0          
C1       C      0.747100000000     0.390700000000     0.017330000000     0          
C2       C      0.749100000000     0.428180000000     0.029040000000     0          
C5       C      0.719900000000     0.403600000000     0.109000000000     0          
C6       C      0.722200000000     0.377000000000     0.135480000000     0          
O1       O      0.781700000000     0.308800000000     0.168000000000     0          
H1       H      0.746050000000     0.370590000000     0.032140000000     0          
H2       H      0.699060000000     0.416580000000     0.104350000000     0          
H3       H      0.702160000000     0.372400000000     0.149700000000     0          
O6?      O      0.775000000000     0.317600000000     0.177000000000     0          
Zr1      Zr     0.800600000000     0.264700000000     0.199400000000     0          
N1       N      0.748500000000     0.448110000000     0.000000000000     0          
O3       O      0.819210000000     0.251370000000     0.251370000000     0          
Zr2?     Zr     0.779420000000     0.283920000000     0.283920000000     0          
C1       C      0.609300000000     0.747100000000     0.017330000000     0          
C2       C      0.571820000000     0.749100000000     0.029040000000     0          
C5       C      0.596400000000     0.719900000000     0.109000000000     0          
C6       C      0.623000000000     0.722200000000     0.135480000000     0          
O1       O      0.691200000000     0.781700000000     0.168000000000     0          
H1       H      0.629410000000     0.746050000000     0.032140000000     0          
H2       H      0.583420000000     0.699060000000     0.104350000000     0          
H3       H      0.627600000000     0.702160000000     0.149700000000     0          
O6?      O      0.682400000000     0.775000000000     0.177000000000     0          
Zr1      Zr     0.735300000000     0.800600000000     0.199400000000     0          
N1       N      0.551890000000     0.748500000000     0.000000000000     0          
C9       C      0.500000000000     0.799100000000     0.000000000000     0          
O5       O      0.500000000000     0.829900000000     0.000000000000     0          
O3       O      0.748630000000     0.819210000000     0.251370000000     0          
Zr2?     Zr     0.716080000000     0.779420000000     0.283920000000     0          
C1       C      0.252900000000     0.609300000000     0.017330000000     0          
C2       C      0.250900000000     0.571820000000     0.029040000000     0          
C5       C      0.280100000000     0.596400000000     0.109000000000     0          
C6       C      0.277800000000     0.623000000000     0.135480000000     0          
O1       O      0.218300000000     0.691200000000     0.168000000000     0          
H1       H      0.253950000000     0.629410000000     0.032140000000     0          
H2       H      0.300940000000     0.583420000000     0.104350000000     0          
H3       H      0.297840000000     0.627600000000     0.149700000000     0          
O6?      O      0.225000000000     0.682400000000     0.177000000000     0          
Zr1      Zr     0.199400000000     0.735300000000     0.199400000000     0          
N1       N      0.251500000000     0.551890000000     0.000000000000     0          
C9       C      0.200900000000     0.500000000000     0.000000000000     0          
O5       O      0.170100000000     0.500000000000     0.000000000000     0          
O3       O      0.180790000000     0.748630000000     0.251370000000     0          
Zr2?     Zr     0.220580000000     0.716080000000     0.283920000000     0          
C1       C      0.390700000000     0.252900000000     0.017330000000     0          
C2       C      0.428180000000     0.250900000000     0.029040000000     0          
C5       C      0.403600000000     0.280100000000     0.109000000000     0          
C6       C      0.377000000000     0.277800000000     0.135480000000     0          
O1       O      0.308800000000     0.218300000000     0.168000000000     0          
H1       H      0.370590000000     0.253950000000     0.032140000000     0          
H2       H      0.416580000000     0.300940000000     0.104350000000     0          
H3       H      0.372400000000     0.297840000000     0.149700000000     0          
O6?      O      0.317600000000     0.225000000000     0.177000000000     0          
Zr1      Zr     0.264700000000     0.199400000000     0.199400000000     0          
N1       N      0.448110000000     0.251500000000     0.000000000000     0          
C9       C      0.500000000000     0.200900000000     0.000000000000     0          
O5       O      0.500000000000     0.170100000000     0.000000000000     0          
O3       O      0.251370000000     0.180790000000     0.251370000000     0          
Zr2?     Zr     0.283920000000     0.220580000000     0.283920000000     0          
C1       C      0.252900000000     0.390700000000     0.982670000000     0          
C2       C      0.250900000000     0.428180000000     0.970960000000     0          
C5       C      0.280100000000     0.403600000000     0.891000000000     0          
C6       C      0.277800000000     0.377000000000     0.864520000000     0          
O1       O      0.218300000000     0.308800000000     0.832000000000     0          
H1       H      0.253950000000     0.370590000000     0.967860000000     0          
H2       H      0.300940000000     0.416580000000     0.895650000000     0          
H3       H      0.297840000000     0.372400000000     0.850300000000     0          
O6?      O      0.225000000000     0.317600000000     0.823000000000     0          
Zr1      Zr     0.199400000000     0.264700000000     0.800600000000     0          
N1       N      0.251500000000     0.448110000000     0.000000000000     0          
O3       O      0.180790000000     0.251370000000     0.748630000000     0          
Zr2?     Zr     0.220580000000     0.283920000000     0.716080000000     0          
C1       C      0.609300000000     0.252900000000     0.982670000000     0          
C2       C      0.571820000000     0.250900000000     0.970960000000     0          
C5       C      0.596400000000     0.280100000000     0.891000000000     0          
C6       C      0.623000000000     0.277800000000     0.864520000000     0          
O1       O      0.691200000000     0.218300000000     0.832000000000     0          
H1       H      0.629410000000     0.253950000000     0.967860000000     0          
H2       H      0.583420000000     0.300940000000     0.895650000000     0          
H3       H      0.627600000000     0.297840000000     0.850300000000     0          
O6?      O      0.682400000000     0.225000000000     0.823000000000     0          
Zr1      Zr     0.735300000000     0.199400000000     0.800600000000     0          
N1       N      0.551890000000     0.251500000000     0.000000000000     0          
O3       O      0.748630000000     0.180790000000     0.748630000000     0          
Zr2?     Zr     0.716080000000     0.220580000000     0.716080000000     0          
C1       C      0.390700000000     0.747100000000     0.982670000000     0          
C2       C      0.428180000000     0.749100000000     0.970960000000     0          
C5       C      0.403600000000     0.719900000000     0.891000000000     0          
C6       C      0.377000000000     0.722200000000     0.864520000000     0          
O1       O      0.308800000000     0.781700000000     0.832000000000     0          
H1       H      0.370590000000     0.746050000000     0.967860000000     0          
H2       H      0.416580000000     0.699060000000     0.895650000000     0          
H3       H      0.372400000000     0.702160000000     0.850300000000     0          
O6?      O      0.317600000000     0.775000000000     0.823000000000     0          
Zr1      Zr     0.264700000000     0.800600000000     0.800600000000     0          
N1       N      0.448110000000     0.748500000000     0.000000000000     0          
O3       O      0.251370000000     0.819210000000     0.748630000000     0          
Zr2?     Zr     0.283920000000     0.779420000000     0.716080000000     0          
C1       C      0.017330000000     0.252900000000     0.390700000000     0          
C2       C      0.029040000000     0.250900000000     0.428180000000     0          
C5       C      0.109000000000     0.280100000000     0.403600000000     0          
C6       C      0.135480000000     0.277800000000     0.377000000000     0          
O1       O      0.168000000000     0.218300000000     0.308800000000     0          
H1       H      0.032140000000     0.253950000000     0.370590000000     0          
H2       H      0.104350000000     0.300940000000     0.416580000000     0          
H3       H      0.149700000000     0.297840000000     0.372400000000     0          
O6?      O      0.177000000000     0.225000000000     0.317600000000     0          
C1       C      0.747100000000     0.017330000000     0.390700000000     0          
C2       C      0.749100000000     0.029040000000     0.428180000000     0          
C5       C      0.719900000000     0.109000000000     0.403600000000     0          
C6       C      0.722200000000     0.135480000000     0.377000000000     0          
O1       O      0.781700000000     0.168000000000     0.308800000000     0          
H1       H      0.746050000000     0.032140000000     0.370590000000     0          
H2       H      0.699060000000     0.104350000000     0.416580000000     0          
H3       H      0.702160000000     0.149700000000     0.372400000000     0          
O6?      O      0.775000000000     0.177000000000     0.317600000000     0          
C1       C      0.982670000000     0.747100000000     0.390700000000     0          
C2       C      0.970960000000     0.749100000000     0.428180000000     0          
C5       C      0.891000000000     0.719900000000     0.403600000000     0          
C6       C      0.864520000000     0.722200000000     0.377000000000     0          
O1       O      0.832000000000     0.781700000000     0.308800000000     0          
H1       H      0.967860000000     0.746050000000     0.370590000000     0          
H2       H      0.895650000000     0.699060000000     0.416580000000     0          
H3       H      0.850300000000     0.702160000000     0.372400000000     0          
O6?      O      0.823000000000     0.775000000000     0.317600000000     0          
C1       C      0.252900000000     0.982670000000     0.390700000000     0          
C2       C      0.250900000000     0.970960000000     0.428180000000     0          
C5       C      0.280100000000     0.891000000000     0.403600000000     0          
C6       C      0.277800000000     0.864520000000     0.377000000000     0          
O1       O      0.218300000000     0.832000000000     0.308800000000     0          
H1       H      0.253950000000     0.967860000000     0.370590000000     0          
H2       H      0.300940000000     0.895650000000     0.416580000000     0          
H3       H      0.297840000000     0.850300000000     0.372400000000     0          
O6?      O      0.225000000000     0.823000000000     0.317600000000     0          
C1       C      0.017330000000     0.747100000000     0.609300000000     0          
C2       C      0.029040000000     0.749100000000     0.571820000000     0          
C5       C      0.109000000000     0.719900000000     0.596400000000     0          
C6       C      0.135480000000     0.722200000000     0.623000000000     0          
O1       O      0.168000000000     0.781700000000     0.691200000000     0          
H1       H      0.032140000000     0.746050000000     0.629410000000     0          
H2       H      0.104350000000     0.699060000000     0.583420000000     0          
H3       H      0.149700000000     0.702160000000     0.627600000000     0          
O6?      O      0.177000000000     0.775000000000     0.682400000000     0          
C1       C      0.252900000000     0.017330000000     0.609300000000     0          
C2       C      0.250900000000     0.029040000000     0.571820000000     0          
C5       C      0.280100000000     0.109000000000     0.596400000000     0          
C6       C      0.277800000000     0.135480000000     0.623000000000     0          
O1       O      0.218300000000     0.168000000000     0.691200000000     0          
H1       H      0.253950000000     0.032140000000     0.629410000000     0          
H2       H      0.300940000000     0.104350000000     0.583420000000     0          
H3       H      0.297840000000     0.149700000000     0.627600000000     0          
O6?      O      0.225000000000     0.177000000000     0.682400000000     0          
C1       C      0.982670000000     0.252900000000     0.609300000000     0          
C2       C      0.970960000000     0.250900000000     0.571820000000     0          
C5       C      0.891000000000     0.280100000000     0.596400000000     0          
C6       C      0.864520000000     0.277800000000     0.623000000000     0          
O1       O      0.832000000000     0.218300000000     0.691200000000     0          
H1       H      0.967860000000     0.253950000000     0.629410000000     0          
H2       H      0.895650000000     0.300940000000     0.583420000000     0          
H3       H      0.850300000000     0.297840000000     0.627600000000     0          
O6?      O      0.823000000000     0.225000000000     0.682400000000     0          
C1       C      0.747100000000     0.982670000000     0.609300000000     0          
C2       C      0.749100000000     0.970960000000     0.571820000000     0          
C5       C      0.719900000000     0.891000000000     0.596400000000     0          
C6       C      0.722200000000     0.864520000000     0.623000000000     0          
O1       O      0.781700000000     0.832000000000     0.691200000000     0          
H1       H      0.746050000000     0.967860000000     0.629410000000     0          
H2       H      0.699060000000     0.895650000000     0.583420000000     0          
H3       H      0.702160000000     0.850300000000     0.627600000000     0          
O6?      O      0.775000000000     0.823000000000     0.682400000000     0          
C1       C      0.390700000000     0.017330000000     0.252900000000     0          
C2       C      0.428180000000     0.029040000000     0.250900000000     0          
C5       C      0.403600000000     0.109000000000     0.280100000000     0          
C6       C      0.377000000000     0.135480000000     0.277800000000     0          
O1       O      0.308800000000     0.168000000000     0.218300000000     0          
H1       H      0.370590000000     0.032140000000     0.253950000000     0          
H2       H      0.416580000000     0.104350000000     0.300940000000     0          
H3       H      0.372400000000     0.149700000000     0.297840000000     0          
O6?      O      0.317600000000     0.177000000000     0.225000000000     0          
C1       C      0.982670000000     0.390700000000     0.252900000000     0          
C2       C      0.970960000000     0.428180000000     0.250900000000     0          
C5       C      0.891000000000     0.403600000000     0.280100000000     0          
C6       C      0.864520000000     0.377000000000     0.277800000000     0          
O1       O      0.832000000000     0.308800000000     0.218300000000     0          
H1       H      0.967860000000     0.370590000000     0.253950000000     0          
H2       H      0.895650000000     0.416580000000     0.300940000000     0          
H3       H      0.850300000000     0.372400000000     0.297840000000     0          
O6?      O      0.823000000000     0.317600000000     0.225000000000     0          
C1       C      0.609300000000     0.982670000000     0.252900000000     0          
C2       C      0.571820000000     0.970960000000     0.250900000000     0          
C5       C      0.596400000000     0.891000000000     0.280100000000     0          
C6       C      0.623000000000     0.864520000000     0.277800000000     0          
O1       O      0.691200000000     0.832000000000     0.218300000000     0          
H1       H      0.629410000000     0.967860000000     0.253950000000     0          
H2       H      0.583420000000     0.895650000000     0.300940000000     0          
H3       H      0.627600000000     0.850300000000     0.297840000000     0          
O6?      O      0.682400000000     0.823000000000     0.225000000000     0          
C1       C      0.017330000000     0.609300000000     0.252900000000     0          
C2       C      0.029040000000     0.571820000000     0.250900000000     0          
C5       C      0.109000000000     0.596400000000     0.280100000000     0          
C6       C      0.135480000000     0.623000000000     0.277800000000     0          
O1       O      0.168000000000     0.691200000000     0.218300000000     0          
H1       H      0.032140000000     0.629410000000     0.253950000000     0          
H2       H      0.104350000000     0.583420000000     0.300940000000     0          
H3       H      0.149700000000     0.627600000000     0.297840000000     0          
O6?      O      0.177000000000     0.682400000000     0.225000000000     0          
C1       C      0.390700000000     0.982670000000     0.747100000000     0          
C2       C      0.428180000000     0.970960000000     0.749100000000     0          
C5       C      0.403600000000     0.891000000000     0.719900000000     0          
C6       C      0.377000000000     0.864520000000     0.722200000000     0          
O1       O      0.308800000000     0.832000000000     0.781700000000     0          
H1       H      0.370590000000     0.967860000000     0.746050000000     0          
H2       H      0.416580000000     0.895650000000     0.699060000000     0          
H3       H      0.372400000000     0.850300000000     0.702160000000     0          
O6?      O      0.317600000000     0.823000000000     0.775000000000     0          
C1       C      0.017330000000     0.390700000000     0.747100000000     0          
C2       C      0.029040000000     0.428180000000     0.749100000000     0          
C5       C      0.109000000000     0.403600000000     0.719900000000     0          
C6       C      0.135480000000     0.377000000000     0.722200000000     0          
O1       O      0.168000000000     0.308800000000     0.781700000000     0          
H1       H      0.032140000000     0.370590000000     0.746050000000     0          
H2       H      0.104350000000     0.416580000000     0.699060000000     0          
H3       H      0.149700000000     0.372400000000     0.702160000000     0          
O6?      O      0.177000000000     0.317600000000     0.775000000000     0          
C1       C      0.609300000000     0.017330000000     0.747100000000     0          
C2       C      0.571820000000     0.029040000000     0.749100000000     0          
C5       C      0.596400000000     0.109000000000     0.719900000000     0          
C6       C      0.623000000000     0.135480000000     0.722200000000     0          
O1       O      0.691200000000     0.168000000000     0.781700000000     0          
H1       H      0.629410000000     0.032140000000     0.746050000000     0          
H2       H      0.583420000000     0.104350000000     0.699060000000     0          
H3       H      0.627600000000     0.149700000000     0.702160000000     0          
O6?      O      0.682400000000     0.177000000000     0.775000000000     0          
C1       C      0.982670000000     0.609300000000     0.747100000000     0          
C2       C      0.970960000000     0.571820000000     0.749100000000     0          
C5       C      0.891000000000     0.596400000000     0.719900000000     0          
C6       C      0.864520000000     0.623000000000     0.722200000000     0          
O1       O      0.832000000000     0.691200000000     0.781700000000     0          
H1       H      0.967860000000     0.629410000000     0.746050000000     0          
H2       H      0.895650000000     0.583420000000     0.699060000000     0          
H3       H      0.850300000000     0.627600000000     0.702160000000     0          
O6?      O      0.823000000000     0.682400000000     0.775000000000     0          
C1       C      0.252900000000     0.390700000000     0.017330000000     0          
C2       C      0.250900000000     0.428180000000     0.029040000000     0          
C5       C      0.280100000000     0.403600000000     0.109000000000     0          
C6       C      0.277800000000     0.377000000000     0.135480000000     0          
O1       O      0.218300000000     0.308800000000     0.168000000000     0          
H1       H      0.253950000000     0.370590000000     0.032140000000     0          
H2       H      0.300940000000     0.416580000000     0.104350000000     0          
H3       H      0.297840000000     0.372400000000     0.149700000000     0          
O6?      O      0.225000000000     0.317600000000     0.177000000000     0          
C1       C      0.252900000000     0.609300000000     0.982670000000     0          
C2       C      0.250900000000     0.571820000000     0.970960000000     0          
C5       C      0.280100000000     0.596400000000     0.891000000000     0          
C6       C      0.277800000000     0.623000000000     0.864520000000     0          
O1       O      0.218300000000     0.691200000000     0.832000000000     0          
H1       H      0.253950000000     0.629410000000     0.967860000000     0          
H2       H      0.300940000000     0.583420000000     0.895650000000     0          
H3       H      0.297840000000     0.627600000000     0.850300000000     0          
O6?      O      0.225000000000     0.682400000000     0.823000000000     0          
C1       C      0.390700000000     0.252900000000     0.982670000000     0          
C2       C      0.428180000000     0.250900000000     0.970960000000     0          
C5       C      0.403600000000     0.280100000000     0.891000000000     0          
C6       C      0.377000000000     0.277800000000     0.864520000000     0          
O1       O      0.308800000000     0.218300000000     0.832000000000     0          
H1       H      0.370590000000     0.253950000000     0.967860000000     0          
H2       H      0.416580000000     0.300940000000     0.895650000000     0          
H3       H      0.372400000000     0.297840000000     0.850300000000     0          
O6?      O      0.317600000000     0.225000000000     0.823000000000     0          
C1       C      0.747100000000     0.390700000000     0.982670000000     0          
C2       C      0.749100000000     0.428180000000     0.970960000000     0          
C5       C      0.719900000000     0.403600000000     0.891000000000     0          
C6       C      0.722200000000     0.377000000000     0.864520000000     0          
O1       O      0.781700000000     0.308800000000     0.832000000000     0          
H1       H      0.746050000000     0.370590000000     0.967860000000     0          
H2       H      0.699060000000     0.416580000000     0.895650000000     0          
H3       H      0.702160000000     0.372400000000     0.850300000000     0          
O6?      O      0.775000000000     0.317600000000     0.823000000000     0          
C1       C      0.609300000000     0.747100000000     0.982670000000     0          
C2       C      0.571820000000     0.749100000000     0.970960000000     0          
C5       C      0.596400000000     0.719900000000     0.891000000000     0          
C6       C      0.623000000000     0.722200000000     0.864520000000     0          
O1       O      0.691200000000     0.781700000000     0.832000000000     0          
H1       H      0.629410000000     0.746050000000     0.967860000000     0          
H2       H      0.583420000000     0.699060000000     0.895650000000     0          
H3       H      0.627600000000     0.702160000000     0.850300000000     0          
O6?      O      0.682400000000     0.775000000000     0.823000000000     0          
C1       C      0.747100000000     0.609300000000     0.017330000000     0          
C2       C      0.749100000000     0.571820000000     0.029040000000     0          
C5       C      0.719900000000     0.596400000000     0.109000000000     0          
C6       C      0.722200000000     0.623000000000     0.135480000000     0          
O1       O      0.781700000000     0.691200000000     0.168000000000     0          
H1       H      0.746050000000     0.629410000000     0.032140000000     0          
H2       H      0.699060000000     0.583420000000     0.104350000000     0          
H3       H      0.702160000000     0.627600000000     0.149700000000     0          
O6?      O      0.775000000000     0.682400000000     0.177000000000     0          
C1       C      0.390700000000     0.747100000000     0.017330000000     0          
C2       C      0.428180000000     0.749100000000     0.029040000000     0          
C5       C      0.403600000000     0.719900000000     0.109000000000     0          
C6       C      0.377000000000     0.722200000000     0.135480000000     0          
O1       O      0.308800000000     0.781700000000     0.168000000000     0          
H1       H      0.370590000000     0.746050000000     0.032140000000     0          
H2       H      0.416580000000     0.699060000000     0.104350000000     0          
H3       H      0.372400000000     0.702160000000     0.149700000000     0          
O6?      O      0.317600000000     0.775000000000     0.177000000000     0          
C1       C      0.609300000000     0.252900000000     0.017330000000     0          
C2       C      0.571820000000     0.250900000000     0.029040000000     0          
C5       C      0.596400000000     0.280100000000     0.109000000000     0          
C6       C      0.623000000000     0.277800000000     0.135480000000     0          
O1       O      0.691200000000     0.218300000000     0.168000000000     0          
H1       H      0.629410000000     0.253950000000     0.032140000000     0          
H2       H      0.583420000000     0.300940000000     0.104350000000     0          
H3       H      0.627600000000     0.297840000000     0.149700000000     0          
O6?      O      0.682400000000     0.225000000000     0.177000000000     0          


