data_DAQPAP

_audit_creation_method RASPA-1.0
_audit_creation_date 2020-11-2
_audit_author_name 'Rocio Bueno-Perez'

_cell_length_a    38.5333
_cell_length_b    38.5333
_cell_length_c    38.5333
_cell_angle_alpha 90
_cell_angle_beta  90
_cell_angle_gamma 90
_cell_volume      57214.8

_symmetry_cell_setting          cubic
_symmetry_space_group_name_Hall 'P 1'
_symmetry_space_group_name_H-M  'P 1'
_symmetry_Int_Tables_number     1

_symmetry_equiv_pos_as_xyz 'x,y,z'

loop_
_atom_site_label
_atom_site_type_symbol
_atom_site_fract_x
_atom_site_fract_y
_atom_site_fract_z
_atom_site_charge
C2       C      0.471670000000     0.249550000000     0.073180000000     0          
O1       O      0.327970000000     0.277790000000     0.185580000000     0          
C3       C      0.482960000000     0.247130000000     0.108400000000     0          
H1       H      0.468400000000     0.245800000000     0.128300000000     0          
C6       C      0.365700000000     0.219900000000     0.123290000000     0          
H2       H      0.353100000000     0.199300000000     0.128200000000     0          
C7       C      0.391670000000     0.220000000000     0.097510000000     0          
H3       H      0.396700000000     0.199300000000     0.085100000000     0          
C1       C      0.409850000000     0.250000000000     0.090150000000     0          
C4       C      0.437440000000     0.250000000000     0.062560000000     0          
C5       C      0.358780000000     0.250000000000     0.141220000000     0          
C9       C      0.332660000000     0.250000000000     0.167340000000     0          
N1       N      0.500000000000     0.249790000000     0.051260000000     0          
Co1      Co     0.500000000000     0.250000000000     0.000000000000     0          
C8       C      0.500000000000     0.301700000000     0.000000000000     0          
O2       O      0.500000000000     0.332400000000     0.000000000000     0          
Zr1      Zr     0.284950000000     0.284950000000     0.221960000000     0          
O3       O      0.251390000000     0.251390000000     0.181800000000     0          
Zr2?     Zr     0.299540000000     0.299540000000     0.233740000000     0          
O4       O      0.281890000000     0.281890000000     0.281890000000     0          
C2       C      0.750450000000     0.471670000000     0.073180000000     0          
O1       O      0.722210000000     0.327970000000     0.185580000000     0          
C3       C      0.752870000000     0.482960000000     0.108400000000     0          
H1       H      0.754200000000     0.468400000000     0.128300000000     0          
C6       C      0.780100000000     0.365700000000     0.123290000000     0          
H2       H      0.800700000000     0.353100000000     0.128200000000     0          
C7       C      0.780000000000     0.391670000000     0.097510000000     0          
H3       H      0.800700000000     0.396700000000     0.085100000000     0          
C1       C      0.750000000000     0.409850000000     0.090150000000     0          
C4       C      0.750000000000     0.437440000000     0.062560000000     0          
C5       C      0.750000000000     0.358780000000     0.141220000000     0          
C9       C      0.750000000000     0.332660000000     0.167340000000     0          
N1       N      0.750210000000     0.500000000000     0.051260000000     0          
Co1      Co     0.750000000000     0.500000000000     0.000000000000     0          
C8       C      0.698300000000     0.500000000000     0.000000000000     0          
O2       O      0.667600000000     0.500000000000     0.000000000000     0          
Zr1      Zr     0.715050000000     0.284950000000     0.221960000000     0          
O3       O      0.748610000000     0.251390000000     0.181800000000     0          
Zr2?     Zr     0.700460000000     0.299540000000     0.233740000000     0          
O4       O      0.718110000000     0.281890000000     0.281890000000     0          
C2       C      0.528330000000     0.750450000000     0.073180000000     0          
O1       O      0.672030000000     0.722210000000     0.185580000000     0          
C3       C      0.517040000000     0.752870000000     0.108400000000     0          
H1       H      0.531600000000     0.754200000000     0.128300000000     0          
C6       C      0.634300000000     0.780100000000     0.123290000000     0          
H2       H      0.646900000000     0.800700000000     0.128200000000     0          
C7       C      0.608330000000     0.780000000000     0.097510000000     0          
H3       H      0.603300000000     0.800700000000     0.085100000000     0          
C1       C      0.590150000000     0.750000000000     0.090150000000     0          
C4       C      0.562560000000     0.750000000000     0.062560000000     0          
C5       C      0.641220000000     0.750000000000     0.141220000000     0          
C9       C      0.667340000000     0.750000000000     0.167340000000     0          
N1       N      0.500000000000     0.750210000000     0.051260000000     0          
Co1      Co     0.500000000000     0.750000000000     0.000000000000     0          
C8       C      0.500000000000     0.698300000000     0.000000000000     0          
O2       O      0.500000000000     0.667600000000     0.000000000000     0          
Zr1      Zr     0.715050000000     0.715050000000     0.221960000000     0          
O3       O      0.748610000000     0.748610000000     0.181800000000     0          
Zr2?     Zr     0.700460000000     0.700460000000     0.233740000000     0          
O4       O      0.718110000000     0.718110000000     0.281890000000     0          
C2       C      0.249550000000     0.528330000000     0.073180000000     0          
O1       O      0.277790000000     0.672030000000     0.185580000000     0          
C3       C      0.247130000000     0.517040000000     0.108400000000     0          
H1       H      0.245800000000     0.531600000000     0.128300000000     0          
C6       C      0.219900000000     0.634300000000     0.123290000000     0          
H2       H      0.199300000000     0.646900000000     0.128200000000     0          
C7       C      0.220000000000     0.608330000000     0.097510000000     0          
H3       H      0.199300000000     0.603300000000     0.085100000000     0          
C1       C      0.250000000000     0.590150000000     0.090150000000     0          
C4       C      0.250000000000     0.562560000000     0.062560000000     0          
C5       C      0.250000000000     0.641220000000     0.141220000000     0          
C9       C      0.250000000000     0.667340000000     0.167340000000     0          
N1       N      0.249790000000     0.500000000000     0.051260000000     0          
Co1      Co     0.250000000000     0.500000000000     0.000000000000     0          
C8       C      0.301700000000     0.500000000000     0.000000000000     0          
O2       O      0.332400000000     0.500000000000     0.000000000000     0          
Zr1      Zr     0.284950000000     0.715050000000     0.221960000000     0          
O3       O      0.251390000000     0.748610000000     0.181800000000     0          
Zr2?     Zr     0.299540000000     0.700460000000     0.233740000000     0          
O4       O      0.281890000000     0.718110000000     0.281890000000     0          
C2       C      0.471670000000     0.750450000000     0.926820000000     0          
O1       O      0.327970000000     0.722210000000     0.814420000000     0          
C3       C      0.482960000000     0.752870000000     0.891600000000     0          
H1       H      0.468400000000     0.754200000000     0.871700000000     0          
C6       C      0.365700000000     0.780100000000     0.876710000000     0          
H2       H      0.353100000000     0.800700000000     0.871800000000     0          
C7       C      0.391670000000     0.780000000000     0.902490000000     0          
H3       H      0.396700000000     0.800700000000     0.914900000000     0          
C1       C      0.409850000000     0.750000000000     0.909850000000     0          
C4       C      0.437440000000     0.750000000000     0.937440000000     0          
C5       C      0.358780000000     0.750000000000     0.858780000000     0          
C9       C      0.332660000000     0.750000000000     0.832660000000     0          
N1       N      0.500000000000     0.750210000000     0.948740000000     0          
Zr1      Zr     0.284950000000     0.715050000000     0.778040000000     0          
O3       O      0.251390000000     0.748610000000     0.818200000000     0          
Zr2?     Zr     0.299540000000     0.700460000000     0.766260000000     0          
O4       O      0.281890000000     0.718110000000     0.718110000000     0          
C2       C      0.249550000000     0.471670000000     0.926820000000     0          
O1       O      0.277790000000     0.327970000000     0.814420000000     0          
C3       C      0.247130000000     0.482960000000     0.891600000000     0          
H1       H      0.245800000000     0.468400000000     0.871700000000     0          
C6       C      0.219900000000     0.365700000000     0.876710000000     0          
H2       H      0.199300000000     0.353100000000     0.871800000000     0          
C7       C      0.220000000000     0.391670000000     0.902490000000     0          
H3       H      0.199300000000     0.396700000000     0.914900000000     0          
C1       C      0.250000000000     0.409850000000     0.909850000000     0          
C4       C      0.250000000000     0.437440000000     0.937440000000     0          
C5       C      0.250000000000     0.358780000000     0.858780000000     0          
C9       C      0.250000000000     0.332660000000     0.832660000000     0          
N1       N      0.249790000000     0.500000000000     0.948740000000     0          
Zr1      Zr     0.284950000000     0.284950000000     0.778040000000     0          
O3       O      0.251390000000     0.251390000000     0.818200000000     0          
Zr2?     Zr     0.299540000000     0.299540000000     0.766260000000     0          
O4       O      0.281890000000     0.281890000000     0.718110000000     0          
C2       C      0.528330000000     0.249550000000     0.926820000000     0          
O1       O      0.672030000000     0.277790000000     0.814420000000     0          
C3       C      0.517040000000     0.247130000000     0.891600000000     0          
H1       H      0.531600000000     0.245800000000     0.871700000000     0          
C6       C      0.634300000000     0.219900000000     0.876710000000     0          
H2       H      0.646900000000     0.199300000000     0.871800000000     0          
C7       C      0.608330000000     0.220000000000     0.902490000000     0          
H3       H      0.603300000000     0.199300000000     0.914900000000     0          
C1       C      0.590150000000     0.250000000000     0.909850000000     0          
C4       C      0.562560000000     0.250000000000     0.937440000000     0          
C5       C      0.641220000000     0.250000000000     0.858780000000     0          
C9       C      0.667340000000     0.250000000000     0.832660000000     0          
N1       N      0.500000000000     0.249790000000     0.948740000000     0          
Zr1      Zr     0.715050000000     0.284950000000     0.778040000000     0          
O3       O      0.748610000000     0.251390000000     0.818200000000     0          
Zr2?     Zr     0.700460000000     0.299540000000     0.766260000000     0          
O4       O      0.718110000000     0.281890000000     0.718110000000     0          
C2       C      0.750450000000     0.528330000000     0.926820000000     0          
O1       O      0.722210000000     0.672030000000     0.814420000000     0          
C3       C      0.752870000000     0.517040000000     0.891600000000     0          
H1       H      0.754200000000     0.531600000000     0.871700000000     0          
C6       C      0.780100000000     0.634300000000     0.876710000000     0          
H2       H      0.800700000000     0.646900000000     0.871800000000     0          
C7       C      0.780000000000     0.608330000000     0.902490000000     0          
H3       H      0.800700000000     0.603300000000     0.914900000000     0          
C1       C      0.750000000000     0.590150000000     0.909850000000     0          
C4       C      0.750000000000     0.562560000000     0.937440000000     0          
C5       C      0.750000000000     0.641220000000     0.858780000000     0          
C9       C      0.750000000000     0.667340000000     0.832660000000     0          
N1       N      0.750210000000     0.500000000000     0.948740000000     0          
Zr1      Zr     0.715050000000     0.715050000000     0.778040000000     0          
O3       O      0.748610000000     0.748610000000     0.818200000000     0          
Zr2?     Zr     0.700460000000     0.700460000000     0.766260000000     0          
O4       O      0.718110000000     0.718110000000     0.718110000000     0          
C2       C      0.073180000000     0.471670000000     0.249550000000     0          
O1       O      0.185580000000     0.327970000000     0.277790000000     0          
C3       C      0.108400000000     0.482960000000     0.247130000000     0          
H1       H      0.128300000000     0.468400000000     0.245800000000     0          
C6       C      0.123290000000     0.365700000000     0.219900000000     0          
H2       H      0.128200000000     0.353100000000     0.199300000000     0          
C7       C      0.097510000000     0.391670000000     0.220000000000     0          
H3       H      0.085100000000     0.396700000000     0.199300000000     0          
C1       C      0.090150000000     0.409850000000     0.250000000000     0          
C4       C      0.062560000000     0.437440000000     0.250000000000     0          
C5       C      0.141220000000     0.358780000000     0.250000000000     0          
C9       C      0.167340000000     0.332660000000     0.250000000000     0          
N1       N      0.051260000000     0.500000000000     0.249790000000     0          
Co1      Co     0.000000000000     0.500000000000     0.250000000000     0          
C8       C      0.000000000000     0.500000000000     0.301700000000     0          
O2       O      0.000000000000     0.500000000000     0.332400000000     0          
Zr1      Zr     0.221960000000     0.284950000000     0.284950000000     0          
O3       O      0.181800000000     0.251390000000     0.251390000000     0          
Zr2?     Zr     0.233740000000     0.299540000000     0.299540000000     0          
C2       C      0.528330000000     0.073180000000     0.249550000000     0          
O1       O      0.672030000000     0.185580000000     0.277790000000     0          
C3       C      0.517040000000     0.108400000000     0.247130000000     0          
H1       H      0.531600000000     0.128300000000     0.245800000000     0          
C6       C      0.634300000000     0.123290000000     0.219900000000     0          
H2       H      0.646900000000     0.128200000000     0.199300000000     0          
C7       C      0.608330000000     0.097510000000     0.220000000000     0          
H3       H      0.603300000000     0.085100000000     0.199300000000     0          
C1       C      0.590150000000     0.090150000000     0.250000000000     0          
C4       C      0.562560000000     0.062560000000     0.250000000000     0          
C5       C      0.641220000000     0.141220000000     0.250000000000     0          
C9       C      0.667340000000     0.167340000000     0.250000000000     0          
N1       N      0.500000000000     0.051260000000     0.249790000000     0          
Co1      Co     0.500000000000     0.000000000000     0.250000000000     0          
C8       C      0.500000000000     0.000000000000     0.301700000000     0          
O2       O      0.500000000000     0.000000000000     0.332400000000     0          
Zr1      Zr     0.715050000000     0.221960000000     0.284950000000     0          
O3       O      0.748610000000     0.181800000000     0.251390000000     0          
Zr2?     Zr     0.700460000000     0.233740000000     0.299540000000     0          
C2       C      0.926820000000     0.528330000000     0.249550000000     0          
O1       O      0.814420000000     0.672030000000     0.277790000000     0          
C3       C      0.891600000000     0.517040000000     0.247130000000     0          
H1       H      0.871700000000     0.531600000000     0.245800000000     0          
C6       C      0.876710000000     0.634300000000     0.219900000000     0          
H2       H      0.871800000000     0.646900000000     0.199300000000     0          
C7       C      0.902490000000     0.608330000000     0.220000000000     0          
H3       H      0.914900000000     0.603300000000     0.199300000000     0          
C1       C      0.909850000000     0.590150000000     0.250000000000     0          
C4       C      0.937440000000     0.562560000000     0.250000000000     0          
C5       C      0.858780000000     0.641220000000     0.250000000000     0          
C9       C      0.832660000000     0.667340000000     0.250000000000     0          
N1       N      0.948740000000     0.500000000000     0.249790000000     0          
Zr1      Zr     0.778040000000     0.715050000000     0.284950000000     0          
O3       O      0.818200000000     0.748610000000     0.251390000000     0          
Zr2?     Zr     0.766260000000     0.700460000000     0.299540000000     0          
C2       C      0.471670000000     0.926820000000     0.249550000000     0          
O1       O      0.327970000000     0.814420000000     0.277790000000     0          
C3       C      0.482960000000     0.891600000000     0.247130000000     0          
H1       H      0.468400000000     0.871700000000     0.245800000000     0          
C6       C      0.365700000000     0.876710000000     0.219900000000     0          
H2       H      0.353100000000     0.871800000000     0.199300000000     0          
C7       C      0.391670000000     0.902490000000     0.220000000000     0          
H3       H      0.396700000000     0.914900000000     0.199300000000     0          
C1       C      0.409850000000     0.909850000000     0.250000000000     0          
C4       C      0.437440000000     0.937440000000     0.250000000000     0          
C5       C      0.358780000000     0.858780000000     0.250000000000     0          
C9       C      0.332660000000     0.832660000000     0.250000000000     0          
N1       N      0.500000000000     0.948740000000     0.249790000000     0          
Zr1      Zr     0.284950000000     0.778040000000     0.284950000000     0          
O3       O      0.251390000000     0.818200000000     0.251390000000     0          
Zr2?     Zr     0.299540000000     0.766260000000     0.299540000000     0          
C2       C      0.073180000000     0.528330000000     0.750450000000     0          
O1       O      0.185580000000     0.672030000000     0.722210000000     0          
C3       C      0.108400000000     0.517040000000     0.752870000000     0          
H1       H      0.128300000000     0.531600000000     0.754200000000     0          
C6       C      0.123290000000     0.634300000000     0.780100000000     0          
H2       H      0.128200000000     0.646900000000     0.800700000000     0          
C7       C      0.097510000000     0.608330000000     0.780000000000     0          
H3       H      0.085100000000     0.603300000000     0.800700000000     0          
C1       C      0.090150000000     0.590150000000     0.750000000000     0          
C4       C      0.062560000000     0.562560000000     0.750000000000     0          
C5       C      0.141220000000     0.641220000000     0.750000000000     0          
C9       C      0.167340000000     0.667340000000     0.750000000000     0          
N1       N      0.051260000000     0.500000000000     0.750210000000     0          
Co1      Co     0.000000000000     0.500000000000     0.750000000000     0          
C8       C      0.000000000000     0.500000000000     0.698300000000     0          
O2       O      0.000000000000     0.500000000000     0.667600000000     0          
Zr1      Zr     0.221960000000     0.715050000000     0.715050000000     0          
O3       O      0.181800000000     0.748610000000     0.748610000000     0          
Zr2?     Zr     0.233740000000     0.700460000000     0.700460000000     0          
C2       C      0.471670000000     0.073180000000     0.750450000000     0          
O1       O      0.327970000000     0.185580000000     0.722210000000     0          
C3       C      0.482960000000     0.108400000000     0.752870000000     0          
H1       H      0.468400000000     0.128300000000     0.754200000000     0          
C6       C      0.365700000000     0.123290000000     0.780100000000     0          
H2       H      0.353100000000     0.128200000000     0.800700000000     0          
C7       C      0.391670000000     0.097510000000     0.780000000000     0          
H3       H      0.396700000000     0.085100000000     0.800700000000     0          
C1       C      0.409850000000     0.090150000000     0.750000000000     0          
C4       C      0.437440000000     0.062560000000     0.750000000000     0          
C5       C      0.358780000000     0.141220000000     0.750000000000     0          
C9       C      0.332660000000     0.167340000000     0.750000000000     0          
N1       N      0.500000000000     0.051260000000     0.750210000000     0          
Co1      Co     0.500000000000     0.000000000000     0.750000000000     0          
C8       C      0.500000000000     0.000000000000     0.698300000000     0          
O2       O      0.500000000000     0.000000000000     0.667600000000     0          
Zr1      Zr     0.284950000000     0.221960000000     0.715050000000     0          
O3       O      0.251390000000     0.181800000000     0.748610000000     0          
Zr2?     Zr     0.299540000000     0.233740000000     0.700460000000     0          
C2       C      0.926820000000     0.471670000000     0.750450000000     0          
O1       O      0.814420000000     0.327970000000     0.722210000000     0          
C3       C      0.891600000000     0.482960000000     0.752870000000     0          
H1       H      0.871700000000     0.468400000000     0.754200000000     0          
C6       C      0.876710000000     0.365700000000     0.780100000000     0          
H2       H      0.871800000000     0.353100000000     0.800700000000     0          
C7       C      0.902490000000     0.391670000000     0.780000000000     0          
H3       H      0.914900000000     0.396700000000     0.800700000000     0          
C1       C      0.909850000000     0.409850000000     0.750000000000     0          
C4       C      0.937440000000     0.437440000000     0.750000000000     0          
C5       C      0.858780000000     0.358780000000     0.750000000000     0          
C9       C      0.832660000000     0.332660000000     0.750000000000     0          
N1       N      0.948740000000     0.500000000000     0.750210000000     0          
Zr1      Zr     0.778040000000     0.284950000000     0.715050000000     0          
O3       O      0.818200000000     0.251390000000     0.748610000000     0          
Zr2?     Zr     0.766260000000     0.299540000000     0.700460000000     0          
C2       C      0.528330000000     0.926820000000     0.750450000000     0          
O1       O      0.672030000000     0.814420000000     0.722210000000     0          
C3       C      0.517040000000     0.891600000000     0.752870000000     0          
H1       H      0.531600000000     0.871700000000     0.754200000000     0          
C6       C      0.634300000000     0.876710000000     0.780100000000     0          
H2       H      0.646900000000     0.871800000000     0.800700000000     0          
C7       C      0.608330000000     0.902490000000     0.780000000000     0          
H3       H      0.603300000000     0.914900000000     0.800700000000     0          
C1       C      0.590150000000     0.909850000000     0.750000000000     0          
C4       C      0.562560000000     0.937440000000     0.750000000000     0          
C5       C      0.641220000000     0.858780000000     0.750000000000     0          
C9       C      0.667340000000     0.832660000000     0.750000000000     0          
N1       N      0.500000000000     0.948740000000     0.750210000000     0          
Zr1      Zr     0.715050000000     0.778040000000     0.715050000000     0          
O3       O      0.748610000000     0.818200000000     0.748610000000     0          
Zr2?     Zr     0.700460000000     0.766260000000     0.700460000000     0          
C2       C      0.249550000000     0.073180000000     0.471670000000     0          
O1       O      0.277790000000     0.185580000000     0.327970000000     0          
C3       C      0.247130000000     0.108400000000     0.482960000000     0          
H1       H      0.245800000000     0.128300000000     0.468400000000     0          
C6       C      0.219900000000     0.123290000000     0.365700000000     0          
H2       H      0.199300000000     0.128200000000     0.353100000000     0          
C7       C      0.220000000000     0.097510000000     0.391670000000     0          
H3       H      0.199300000000     0.085100000000     0.396700000000     0          
C1       C      0.250000000000     0.090150000000     0.409850000000     0          
C4       C      0.250000000000     0.062560000000     0.437440000000     0          
C5       C      0.250000000000     0.141220000000     0.358780000000     0          
C9       C      0.250000000000     0.167340000000     0.332660000000     0          
N1       N      0.249790000000     0.051260000000     0.500000000000     0          
Co1      Co     0.250000000000     0.000000000000     0.500000000000     0          
C8       C      0.301700000000     0.000000000000     0.500000000000     0          
O2       O      0.332400000000     0.000000000000     0.500000000000     0          
Zr1      Zr     0.284950000000     0.221960000000     0.284950000000     0          
O3       O      0.251390000000     0.181800000000     0.251390000000     0          
Zr2?     Zr     0.299540000000     0.233740000000     0.299540000000     0          
C2       C      0.249550000000     0.926820000000     0.528330000000     0          
O1       O      0.277790000000     0.814420000000     0.672030000000     0          
C3       C      0.247130000000     0.891600000000     0.517040000000     0          
H1       H      0.245800000000     0.871700000000     0.531600000000     0          
C6       C      0.219900000000     0.876710000000     0.634300000000     0          
H2       H      0.199300000000     0.871800000000     0.646900000000     0          
C7       C      0.220000000000     0.902490000000     0.608330000000     0          
H3       H      0.199300000000     0.914900000000     0.603300000000     0          
C1       C      0.250000000000     0.909850000000     0.590150000000     0          
C4       C      0.250000000000     0.937440000000     0.562560000000     0          
C5       C      0.250000000000     0.858780000000     0.641220000000     0          
C9       C      0.250000000000     0.832660000000     0.667340000000     0          
N1       N      0.249790000000     0.948740000000     0.500000000000     0          
Zr1      Zr     0.284950000000     0.778040000000     0.715050000000     0          
O3       O      0.251390000000     0.818200000000     0.748610000000     0          
Zr2?     Zr     0.299540000000     0.766260000000     0.700460000000     0          
C2       C      0.073180000000     0.249550000000     0.528330000000     0          
O1       O      0.185580000000     0.277790000000     0.672030000000     0          
C3       C      0.108400000000     0.247130000000     0.517040000000     0          
H1       H      0.128300000000     0.245800000000     0.531600000000     0          
C6       C      0.123290000000     0.219900000000     0.634300000000     0          
H2       H      0.128200000000     0.199300000000     0.646900000000     0          
C7       C      0.097510000000     0.220000000000     0.608330000000     0          
H3       H      0.085100000000     0.199300000000     0.603300000000     0          
C1       C      0.090150000000     0.250000000000     0.590150000000     0          
C4       C      0.062560000000     0.250000000000     0.562560000000     0          
C5       C      0.141220000000     0.250000000000     0.641220000000     0          
C9       C      0.167340000000     0.250000000000     0.667340000000     0          
N1       N      0.051260000000     0.249790000000     0.500000000000     0          
Co1      Co     0.000000000000     0.250000000000     0.500000000000     0          
C8       C      0.000000000000     0.301700000000     0.500000000000     0          
O2       O      0.000000000000     0.332400000000     0.500000000000     0          
Zr1      Zr     0.221960000000     0.284950000000     0.715050000000     0          
O3       O      0.181800000000     0.251390000000     0.748610000000     0          
Zr2?     Zr     0.233740000000     0.299540000000     0.700460000000     0          
C2       C      0.750450000000     0.073180000000     0.528330000000     0          
O1       O      0.722210000000     0.185580000000     0.672030000000     0          
C3       C      0.752870000000     0.108400000000     0.517040000000     0          
H1       H      0.754200000000     0.128300000000     0.531600000000     0          
C6       C      0.780100000000     0.123290000000     0.634300000000     0          
H2       H      0.800700000000     0.128200000000     0.646900000000     0          
C7       C      0.780000000000     0.097510000000     0.608330000000     0          
H3       H      0.800700000000     0.085100000000     0.603300000000     0          
C1       C      0.750000000000     0.090150000000     0.590150000000     0          
C4       C      0.750000000000     0.062560000000     0.562560000000     0          
C5       C      0.750000000000     0.141220000000     0.641220000000     0          
C9       C      0.750000000000     0.167340000000     0.667340000000     0          
N1       N      0.750210000000     0.051260000000     0.500000000000     0          
Co1      Co     0.750000000000     0.000000000000     0.500000000000     0          
C8       C      0.698300000000     0.000000000000     0.500000000000     0          
O2       O      0.667600000000     0.000000000000     0.500000000000     0          
Zr1      Zr     0.715050000000     0.221960000000     0.715050000000     0          
O3       O      0.748610000000     0.181800000000     0.748610000000     0          
Zr2?     Zr     0.700460000000     0.233740000000     0.700460000000     0          
C2       C      0.926820000000     0.750450000000     0.528330000000     0          
O1       O      0.814420000000     0.722210000000     0.672030000000     0          
C3       C      0.891600000000     0.752870000000     0.517040000000     0          
H1       H      0.871700000000     0.754200000000     0.531600000000     0          
C6       C      0.876710000000     0.780100000000     0.634300000000     0          
H2       H      0.871800000000     0.800700000000     0.646900000000     0          
C7       C      0.902490000000     0.780000000000     0.608330000000     0          
H3       H      0.914900000000     0.800700000000     0.603300000000     0          
C1       C      0.909850000000     0.750000000000     0.590150000000     0          
C4       C      0.937440000000     0.750000000000     0.562560000000     0          
C5       C      0.858780000000     0.750000000000     0.641220000000     0          
C9       C      0.832660000000     0.750000000000     0.667340000000     0          
N1       N      0.948740000000     0.750210000000     0.500000000000     0          
Co1      Co     0.000000000000     0.750000000000     0.500000000000     0          
C8       C      0.000000000000     0.698300000000     0.500000000000     0          
O2       O      0.000000000000     0.667600000000     0.500000000000     0          
Zr1      Zr     0.778040000000     0.715050000000     0.715050000000     0          
O3       O      0.818200000000     0.748610000000     0.748610000000     0          
Zr2?     Zr     0.766260000000     0.700460000000     0.700460000000     0          
C2       C      0.750450000000     0.926820000000     0.471670000000     0          
O1       O      0.722210000000     0.814420000000     0.327970000000     0          
C3       C      0.752870000000     0.891600000000     0.482960000000     0          
H1       H      0.754200000000     0.871700000000     0.468400000000     0          
C6       C      0.780100000000     0.876710000000     0.365700000000     0          
H2       H      0.800700000000     0.871800000000     0.353100000000     0          
C7       C      0.780000000000     0.902490000000     0.391670000000     0          
H3       H      0.800700000000     0.914900000000     0.396700000000     0          
C1       C      0.750000000000     0.909850000000     0.409850000000     0          
C4       C      0.750000000000     0.937440000000     0.437440000000     0          
C5       C      0.750000000000     0.858780000000     0.358780000000     0          
C9       C      0.750000000000     0.832660000000     0.332660000000     0          
N1       N      0.750210000000     0.948740000000     0.500000000000     0          
Zr1      Zr     0.715050000000     0.778040000000     0.284950000000     0          
O3       O      0.748610000000     0.818200000000     0.251390000000     0          
Zr2?     Zr     0.700460000000     0.766260000000     0.299540000000     0          
C2       C      0.073180000000     0.750450000000     0.471670000000     0          
O1       O      0.185580000000     0.722210000000     0.327970000000     0          
C3       C      0.108400000000     0.752870000000     0.482960000000     0          
H1       H      0.128300000000     0.754200000000     0.468400000000     0          
C6       C      0.123290000000     0.780100000000     0.365700000000     0          
H2       H      0.128200000000     0.800700000000     0.353100000000     0          
C7       C      0.097510000000     0.780000000000     0.391670000000     0          
H3       H      0.085100000000     0.800700000000     0.396700000000     0          
C1       C      0.090150000000     0.750000000000     0.409850000000     0          
C4       C      0.062560000000     0.750000000000     0.437440000000     0          
C5       C      0.141220000000     0.750000000000     0.358780000000     0          
C9       C      0.167340000000     0.750000000000     0.332660000000     0          
N1       N      0.051260000000     0.750210000000     0.500000000000     0          
Zr1      Zr     0.221960000000     0.715050000000     0.284950000000     0          
O3       O      0.181800000000     0.748610000000     0.251390000000     0          
Zr2?     Zr     0.233740000000     0.700460000000     0.299540000000     0          
C2       C      0.926820000000     0.249550000000     0.471670000000     0          
O1       O      0.814420000000     0.277790000000     0.327970000000     0          
C3       C      0.891600000000     0.247130000000     0.482960000000     0          
H1       H      0.871700000000     0.245800000000     0.468400000000     0          
C6       C      0.876710000000     0.219900000000     0.365700000000     0          
H2       H      0.871800000000     0.199300000000     0.353100000000     0          
C7       C      0.902490000000     0.220000000000     0.391670000000     0          
H3       H      0.914900000000     0.199300000000     0.396700000000     0          
C1       C      0.909850000000     0.250000000000     0.409850000000     0          
C4       C      0.937440000000     0.250000000000     0.437440000000     0          
C5       C      0.858780000000     0.250000000000     0.358780000000     0          
C9       C      0.832660000000     0.250000000000     0.332660000000     0          
N1       N      0.948740000000     0.249790000000     0.500000000000     0          
Zr1      Zr     0.778040000000     0.284950000000     0.284950000000     0          
O3       O      0.818200000000     0.251390000000     0.251390000000     0          
Zr2?     Zr     0.766260000000     0.299540000000     0.299540000000     0          
C2       C      0.528330000000     0.750450000000     0.926820000000     0          
O1       O      0.672030000000     0.722210000000     0.814420000000     0          
C3       C      0.517040000000     0.752870000000     0.891600000000     0          
H1       H      0.531600000000     0.754200000000     0.871700000000     0          
C6       C      0.634300000000     0.780100000000     0.876710000000     0          
H2       H      0.646900000000     0.800700000000     0.871800000000     0          
C7       C      0.608330000000     0.780000000000     0.902490000000     0          
H3       H      0.603300000000     0.800700000000     0.914900000000     0          
C1       C      0.590150000000     0.750000000000     0.909850000000     0          
C4       C      0.562560000000     0.750000000000     0.937440000000     0          
C5       C      0.641220000000     0.750000000000     0.858780000000     0          
C9       C      0.667340000000     0.750000000000     0.832660000000     0          
C2       C      0.249550000000     0.528330000000     0.926820000000     0          
O1       O      0.277790000000     0.672030000000     0.814420000000     0          
C3       C      0.247130000000     0.517040000000     0.891600000000     0          
H1       H      0.245800000000     0.531600000000     0.871700000000     0          
C6       C      0.219900000000     0.634300000000     0.876710000000     0          
H2       H      0.199300000000     0.646900000000     0.871800000000     0          
C7       C      0.220000000000     0.608330000000     0.902490000000     0          
H3       H      0.199300000000     0.603300000000     0.914900000000     0          
C1       C      0.250000000000     0.590150000000     0.909850000000     0          
C4       C      0.250000000000     0.562560000000     0.937440000000     0          
C5       C      0.250000000000     0.641220000000     0.858780000000     0          
C9       C      0.250000000000     0.667340000000     0.832660000000     0          
C2       C      0.471670000000     0.249550000000     0.926820000000     0          
O1       O      0.327970000000     0.277790000000     0.814420000000     0          
C3       C      0.482960000000     0.247130000000     0.891600000000     0          
H1       H      0.468400000000     0.245800000000     0.871700000000     0          
C6       C      0.365700000000     0.219900000000     0.876710000000     0          
H2       H      0.353100000000     0.199300000000     0.871800000000     0          
C7       C      0.391670000000     0.220000000000     0.902490000000     0          
H3       H      0.396700000000     0.199300000000     0.914900000000     0          
C1       C      0.409850000000     0.250000000000     0.909850000000     0          
C4       C      0.437440000000     0.250000000000     0.937440000000     0          
C5       C      0.358780000000     0.250000000000     0.858780000000     0          
C9       C      0.332660000000     0.250000000000     0.832660000000     0          
C2       C      0.750450000000     0.471670000000     0.926820000000     0          
O1       O      0.722210000000     0.327970000000     0.814420000000     0          
C3       C      0.752870000000     0.482960000000     0.891600000000     0          
H1       H      0.754200000000     0.468400000000     0.871700000000     0          
C6       C      0.780100000000     0.365700000000     0.876710000000     0          
H2       H      0.800700000000     0.353100000000     0.871800000000     0          
C7       C      0.780000000000     0.391670000000     0.902490000000     0          
H3       H      0.800700000000     0.396700000000     0.914900000000     0          
C1       C      0.750000000000     0.409850000000     0.909850000000     0          
C4       C      0.750000000000     0.437440000000     0.937440000000     0          
C5       C      0.750000000000     0.358780000000     0.858780000000     0          
C9       C      0.750000000000     0.332660000000     0.832660000000     0          
C2       C      0.528330000000     0.249550000000     0.073180000000     0          
O1       O      0.672030000000     0.277790000000     0.185580000000     0          
C3       C      0.517040000000     0.247130000000     0.108400000000     0          
H1       H      0.531600000000     0.245800000000     0.128300000000     0          
C6       C      0.634300000000     0.219900000000     0.123290000000     0          
H2       H      0.646900000000     0.199300000000     0.128200000000     0          
C7       C      0.608330000000     0.220000000000     0.097510000000     0          
H3       H      0.603300000000     0.199300000000     0.085100000000     0          
C1       C      0.590150000000     0.250000000000     0.090150000000     0          
C4       C      0.562560000000     0.250000000000     0.062560000000     0          
C5       C      0.641220000000     0.250000000000     0.141220000000     0          
C9       C      0.667340000000     0.250000000000     0.167340000000     0          
C2       C      0.750450000000     0.528330000000     0.073180000000     0          
O1       O      0.722210000000     0.672030000000     0.185580000000     0          
C3       C      0.752870000000     0.517040000000     0.108400000000     0          
H1       H      0.754200000000     0.531600000000     0.128300000000     0          
C6       C      0.780100000000     0.634300000000     0.123290000000     0          
H2       H      0.800700000000     0.646900000000     0.128200000000     0          
C7       C      0.780000000000     0.608330000000     0.097510000000     0          
H3       H      0.800700000000     0.603300000000     0.085100000000     0          
C1       C      0.750000000000     0.590150000000     0.090150000000     0          
C4       C      0.750000000000     0.562560000000     0.062560000000     0          
C5       C      0.750000000000     0.641220000000     0.141220000000     0          
C9       C      0.750000000000     0.667340000000     0.167340000000     0          
C2       C      0.471670000000     0.750450000000     0.073180000000     0          
O1       O      0.327970000000     0.722210000000     0.185580000000     0          
C3       C      0.482960000000     0.752870000000     0.108400000000     0          
H1       H      0.468400000000     0.754200000000     0.128300000000     0          
C6       C      0.365700000000     0.780100000000     0.123290000000     0          
H2       H      0.353100000000     0.800700000000     0.128200000000     0          
C7       C      0.391670000000     0.780000000000     0.097510000000     0          
H3       H      0.396700000000     0.800700000000     0.085100000000     0          
C1       C      0.409850000000     0.750000000000     0.090150000000     0          
C4       C      0.437440000000     0.750000000000     0.062560000000     0          
C5       C      0.358780000000     0.750000000000     0.141220000000     0          
C9       C      0.332660000000     0.750000000000     0.167340000000     0          
C2       C      0.249550000000     0.471670000000     0.073180000000     0          
O1       O      0.277790000000     0.327970000000     0.185580000000     0          
C3       C      0.247130000000     0.482960000000     0.108400000000     0          
H1       H      0.245800000000     0.468400000000     0.128300000000     0          
C6       C      0.219900000000     0.365700000000     0.123290000000     0          
H2       H      0.199300000000     0.353100000000     0.128200000000     0          
C7       C      0.220000000000     0.391670000000     0.097510000000     0          
H3       H      0.199300000000     0.396700000000     0.085100000000     0          
C1       C      0.250000000000     0.409850000000     0.090150000000     0          
C4       C      0.250000000000     0.437440000000     0.062560000000     0          
C5       C      0.250000000000     0.358780000000     0.141220000000     0          
C9       C      0.250000000000     0.332660000000     0.167340000000     0          
C2       C      0.926820000000     0.528330000000     0.750450000000     0          
O1       O      0.814420000000     0.672030000000     0.722210000000     0          
C3       C      0.891600000000     0.517040000000     0.752870000000     0          
H1       H      0.871700000000     0.531600000000     0.754200000000     0          
C6       C      0.876710000000     0.634300000000     0.780100000000     0          
H2       H      0.871800000000     0.646900000000     0.800700000000     0          
C7       C      0.902490000000     0.608330000000     0.780000000000     0          
H3       H      0.914900000000     0.603300000000     0.800700000000     0          
C1       C      0.909850000000     0.590150000000     0.750000000000     0          
C4       C      0.937440000000     0.562560000000     0.750000000000     0          
C5       C      0.858780000000     0.641220000000     0.750000000000     0          
C9       C      0.832660000000     0.667340000000     0.750000000000     0          
C2       C      0.471670000000     0.926820000000     0.750450000000     0          
O1       O      0.327970000000     0.814420000000     0.722210000000     0          
C3       C      0.482960000000     0.891600000000     0.752870000000     0          
H1       H      0.468400000000     0.871700000000     0.754200000000     0          
C6       C      0.365700000000     0.876710000000     0.780100000000     0          
H2       H      0.353100000000     0.871800000000     0.800700000000     0          
C7       C      0.391670000000     0.902490000000     0.780000000000     0          
H3       H      0.396700000000     0.914900000000     0.800700000000     0          
C1       C      0.409850000000     0.909850000000     0.750000000000     0          
C4       C      0.437440000000     0.937440000000     0.750000000000     0          
C5       C      0.358780000000     0.858780000000     0.750000000000     0          
C9       C      0.332660000000     0.832660000000     0.750000000000     0          
C2       C      0.073180000000     0.471670000000     0.750450000000     0          
O1       O      0.185580000000     0.327970000000     0.722210000000     0          
C3       C      0.108400000000     0.482960000000     0.752870000000     0          
H1       H      0.128300000000     0.468400000000     0.754200000000     0          
C6       C      0.123290000000     0.365700000000     0.780100000000     0          
H2       H      0.128200000000     0.353100000000     0.800700000000     0          
C7       C      0.097510000000     0.391670000000     0.780000000000     0          
H3       H      0.085100000000     0.396700000000     0.800700000000     0          
C1       C      0.090150000000     0.409850000000     0.750000000000     0          
C4       C      0.062560000000     0.437440000000     0.750000000000     0          
C5       C      0.141220000000     0.358780000000     0.750000000000     0          
C9       C      0.167340000000     0.332660000000     0.750000000000     0          
C2       C      0.528330000000     0.073180000000     0.750450000000     0          
O1       O      0.672030000000     0.185580000000     0.722210000000     0          
C3       C      0.517040000000     0.108400000000     0.752870000000     0          
H1       H      0.531600000000     0.128300000000     0.754200000000     0          
C6       C      0.634300000000     0.123290000000     0.780100000000     0          
H2       H      0.646900000000     0.128200000000     0.800700000000     0          
C7       C      0.608330000000     0.097510000000     0.780000000000     0          
H3       H      0.603300000000     0.085100000000     0.800700000000     0          
C1       C      0.590150000000     0.090150000000     0.750000000000     0          
C4       C      0.562560000000     0.062560000000     0.750000000000     0          
C5       C      0.641220000000     0.141220000000     0.750000000000     0          
C9       C      0.667340000000     0.167340000000     0.750000000000     0          
C2       C      0.926820000000     0.471670000000     0.249550000000     0          
O1       O      0.814420000000     0.327970000000     0.277790000000     0          
C3       C      0.891600000000     0.482960000000     0.247130000000     0          
H1       H      0.871700000000     0.468400000000     0.245800000000     0          
C6       C      0.876710000000     0.365700000000     0.219900000000     0          
H2       H      0.871800000000     0.353100000000     0.199300000000     0          
C7       C      0.902490000000     0.391670000000     0.220000000000     0          
H3       H      0.914900000000     0.396700000000     0.199300000000     0          
C1       C      0.909850000000     0.409850000000     0.250000000000     0          
C4       C      0.937440000000     0.437440000000     0.250000000000     0          
C5       C      0.858780000000     0.358780000000     0.250000000000     0          
C9       C      0.832660000000     0.332660000000     0.250000000000     0          
C2       C      0.528330000000     0.926820000000     0.249550000000     0          
O1       O      0.672030000000     0.814420000000     0.277790000000     0          
C3       C      0.517040000000     0.891600000000     0.247130000000     0          
H1       H      0.531600000000     0.871700000000     0.245800000000     0          
C6       C      0.634300000000     0.876710000000     0.219900000000     0          
H2       H      0.646900000000     0.871800000000     0.199300000000     0          
C7       C      0.608330000000     0.902490000000     0.220000000000     0          
H3       H      0.603300000000     0.914900000000     0.199300000000     0          
C1       C      0.590150000000     0.909850000000     0.250000000000     0          
C4       C      0.562560000000     0.937440000000     0.250000000000     0          
C5       C      0.641220000000     0.858780000000     0.250000000000     0          
C9       C      0.667340000000     0.832660000000     0.250000000000     0          
C2       C      0.073180000000     0.528330000000     0.249550000000     0          
O1       O      0.185580000000     0.672030000000     0.277790000000     0          
C3       C      0.108400000000     0.517040000000     0.247130000000     0          
H1       H      0.128300000000     0.531600000000     0.245800000000     0          
C6       C      0.123290000000     0.634300000000     0.219900000000     0          
H2       H      0.128200000000     0.646900000000     0.199300000000     0          
C7       C      0.097510000000     0.608330000000     0.220000000000     0          
H3       H      0.085100000000     0.603300000000     0.199300000000     0          
C1       C      0.090150000000     0.590150000000     0.250000000000     0          
C4       C      0.062560000000     0.562560000000     0.250000000000     0          
C5       C      0.141220000000     0.641220000000     0.250000000000     0          
C9       C      0.167340000000     0.667340000000     0.250000000000     0          
C2       C      0.471670000000     0.073180000000     0.249550000000     0          
O1       O      0.327970000000     0.185580000000     0.277790000000     0          
C3       C      0.482960000000     0.108400000000     0.247130000000     0          
H1       H      0.468400000000     0.128300000000     0.245800000000     0          
C6       C      0.365700000000     0.123290000000     0.219900000000     0          
H2       H      0.353100000000     0.128200000000     0.199300000000     0          
C7       C      0.391670000000     0.097510000000     0.220000000000     0          
H3       H      0.396700000000     0.085100000000     0.199300000000     0          
C1       C      0.409850000000     0.090150000000     0.250000000000     0          
C4       C      0.437440000000     0.062560000000     0.250000000000     0          
C5       C      0.358780000000     0.141220000000     0.250000000000     0          
C9       C      0.332660000000     0.167340000000     0.250000000000     0          
C2       C      0.750450000000     0.926820000000     0.528330000000     0          
O1       O      0.722210000000     0.814420000000     0.672030000000     0          
C3       C      0.752870000000     0.891600000000     0.517040000000     0          
H1       H      0.754200000000     0.871700000000     0.531600000000     0          
C6       C      0.780100000000     0.876710000000     0.634300000000     0          
H2       H      0.800700000000     0.871800000000     0.646900000000     0          
C7       C      0.780000000000     0.902490000000     0.608330000000     0          
H3       H      0.800700000000     0.914900000000     0.603300000000     0          
C1       C      0.750000000000     0.909850000000     0.590150000000     0          
C4       C      0.750000000000     0.937440000000     0.562560000000     0          
C5       C      0.750000000000     0.858780000000     0.641220000000     0          
C9       C      0.750000000000     0.832660000000     0.667340000000     0          
C2       C      0.750450000000     0.073180000000     0.471670000000     0          
O1       O      0.722210000000     0.185580000000     0.327970000000     0          
C3       C      0.752870000000     0.108400000000     0.482960000000     0          
H1       H      0.754200000000     0.128300000000     0.468400000000     0          
C6       C      0.780100000000     0.123290000000     0.365700000000     0          
H2       H      0.800700000000     0.128200000000     0.353100000000     0          
C7       C      0.780000000000     0.097510000000     0.391670000000     0          
H3       H      0.800700000000     0.085100000000     0.396700000000     0          
C1       C      0.750000000000     0.090150000000     0.409850000000     0          
C4       C      0.750000000000     0.062560000000     0.437440000000     0          
C5       C      0.750000000000     0.141220000000     0.358780000000     0          
C9       C      0.750000000000     0.167340000000     0.332660000000     0          
C2       C      0.926820000000     0.750450000000     0.471670000000     0          
O1       O      0.814420000000     0.722210000000     0.327970000000     0          
C3       C      0.891600000000     0.752870000000     0.482960000000     0          
H1       H      0.871700000000     0.754200000000     0.468400000000     0          
C6       C      0.876710000000     0.780100000000     0.365700000000     0          
H2       H      0.871800000000     0.800700000000     0.353100000000     0          
C7       C      0.902490000000     0.780000000000     0.391670000000     0          
H3       H      0.914900000000     0.800700000000     0.396700000000     0          
C1       C      0.909850000000     0.750000000000     0.409850000000     0          
C4       C      0.937440000000     0.750000000000     0.437440000000     0          
C5       C      0.858780000000     0.750000000000     0.358780000000     0          
C9       C      0.832660000000     0.750000000000     0.332660000000     0          
C2       C      0.249550000000     0.926820000000     0.471670000000     0          
O1       O      0.277790000000     0.814420000000     0.327970000000     0          
C3       C      0.247130000000     0.891600000000     0.482960000000     0          
H1       H      0.245800000000     0.871700000000     0.468400000000     0          
C6       C      0.219900000000     0.876710000000     0.365700000000     0          
H2       H      0.199300000000     0.871800000000     0.353100000000     0          
C7       C      0.220000000000     0.902490000000     0.391670000000     0          
H3       H      0.199300000000     0.914900000000     0.396700000000     0          
C1       C      0.250000000000     0.909850000000     0.409850000000     0          
C4       C      0.250000000000     0.937440000000     0.437440000000     0          
C5       C      0.250000000000     0.858780000000     0.358780000000     0          
C9       C      0.250000000000     0.832660000000     0.332660000000     0          
C2       C      0.073180000000     0.249550000000     0.471670000000     0          
O1       O      0.185580000000     0.277790000000     0.327970000000     0          
C3       C      0.108400000000     0.247130000000     0.482960000000     0          
H1       H      0.128300000000     0.245800000000     0.468400000000     0          
C6       C      0.123290000000     0.219900000000     0.365700000000     0          
H2       H      0.128200000000     0.199300000000     0.353100000000     0          
C7       C      0.097510000000     0.220000000000     0.391670000000     0          
H3       H      0.085100000000     0.199300000000     0.396700000000     0          
C1       C      0.090150000000     0.250000000000     0.409850000000     0          
C4       C      0.062560000000     0.250000000000     0.437440000000     0          
C5       C      0.141220000000     0.250000000000     0.358780000000     0          
C9       C      0.167340000000     0.250000000000     0.332660000000     0          
C2       C      0.249550000000     0.073180000000     0.528330000000     0          
O1       O      0.277790000000     0.185580000000     0.672030000000     0          
C3       C      0.247130000000     0.108400000000     0.517040000000     0          
H1       H      0.245800000000     0.128300000000     0.531600000000     0          
C6       C      0.219900000000     0.123290000000     0.634300000000     0          
H2       H      0.199300000000     0.128200000000     0.646900000000     0          
C7       C      0.220000000000     0.097510000000     0.608330000000     0          
H3       H      0.199300000000     0.085100000000     0.603300000000     0          
C1       C      0.250000000000     0.090150000000     0.590150000000     0          
C4       C      0.250000000000     0.062560000000     0.562560000000     0          
C5       C      0.250000000000     0.141220000000     0.641220000000     0          
C9       C      0.250000000000     0.167340000000     0.667340000000     0          
C2       C      0.926820000000     0.249550000000     0.528330000000     0          
O1       O      0.814420000000     0.277790000000     0.672030000000     0          
C3       C      0.891600000000     0.247130000000     0.517040000000     0          
H1       H      0.871700000000     0.245800000000     0.531600000000     0          
C6       C      0.876710000000     0.219900000000     0.634300000000     0          
H2       H      0.871800000000     0.199300000000     0.646900000000     0          
C7       C      0.902490000000     0.220000000000     0.608330000000     0          
H3       H      0.914900000000     0.199300000000     0.603300000000     0          
C1       C      0.909850000000     0.250000000000     0.590150000000     0          
C4       C      0.937440000000     0.250000000000     0.562560000000     0          
C5       C      0.858780000000     0.250000000000     0.641220000000     0          
C9       C      0.832660000000     0.250000000000     0.667340000000     0          
C2       C      0.073180000000     0.750450000000     0.528330000000     0          
O1       O      0.185580000000     0.722210000000     0.672030000000     0          
C3       C      0.108400000000     0.752870000000     0.517040000000     0          
H1       H      0.128300000000     0.754200000000     0.531600000000     0          
C6       C      0.123290000000     0.780100000000     0.634300000000     0          
H2       H      0.128200000000     0.800700000000     0.646900000000     0          
C7       C      0.097510000000     0.780000000000     0.608330000000     0          
H3       H      0.085100000000     0.800700000000     0.603300000000     0          
C1       C      0.090150000000     0.750000000000     0.590150000000     0          
C4       C      0.062560000000     0.750000000000     0.562560000000     0          
C5       C      0.141220000000     0.750000000000     0.641220000000     0          
C9       C      0.167340000000     0.750000000000     0.667340000000     0          
C2       C      0.971670000000     0.749550000000     0.573180000000     0          
O1       O      0.827970000000     0.777790000000     0.685580000000     0          
C3       C      0.982960000000     0.747130000000     0.608400000000     0          
H1       H      0.968400000000     0.745800000000     0.628300000000     0          
C6       C      0.865700000000     0.719900000000     0.623290000000     0          
H2       H      0.853100000000     0.699300000000     0.628200000000     0          
C7       C      0.891670000000     0.720000000000     0.597510000000     0          
H3       H      0.896700000000     0.699300000000     0.585100000000     0          
N1       N      0.000000000000     0.749790000000     0.551260000000     0          
C8       C      0.000000000000     0.801700000000     0.500000000000     0          
O2       O      0.000000000000     0.832400000000     0.500000000000     0          
Zr1      Zr     0.784950000000     0.784950000000     0.721960000000     0          
O3       O      0.751390000000     0.751390000000     0.681800000000     0          
Zr2?     Zr     0.799540000000     0.799540000000     0.733740000000     0          
O4       O      0.781890000000     0.781890000000     0.781890000000     0          
C2       C      0.250450000000     0.971670000000     0.573180000000     0          
O1       O      0.222210000000     0.827970000000     0.685580000000     0          
C3       C      0.252870000000     0.982960000000     0.608400000000     0          
H1       H      0.254200000000     0.968400000000     0.628300000000     0          
C6       C      0.280100000000     0.865700000000     0.623290000000     0          
H2       H      0.300700000000     0.853100000000     0.628200000000     0          
C7       C      0.280000000000     0.891670000000     0.597510000000     0          
H3       H      0.300700000000     0.896700000000     0.585100000000     0          
N1       N      0.250210000000     0.000000000000     0.551260000000     0          
C8       C      0.198300000000     0.000000000000     0.500000000000     0          
O2       O      0.167600000000     0.000000000000     0.500000000000     0          
Zr1      Zr     0.215050000000     0.784950000000     0.721960000000     0          
O3       O      0.248610000000     0.751390000000     0.681800000000     0          
Zr2?     Zr     0.200460000000     0.799540000000     0.733740000000     0          
O4       O      0.218110000000     0.781890000000     0.781890000000     0          
C2       C      0.028330000000     0.250450000000     0.573180000000     0          
O1       O      0.172030000000     0.222210000000     0.685580000000     0          
C3       C      0.017040000000     0.252870000000     0.608400000000     0          
H1       H      0.031600000000     0.254200000000     0.628300000000     0          
C6       C      0.134300000000     0.280100000000     0.623290000000     0          
H2       H      0.146900000000     0.300700000000     0.628200000000     0          
C7       C      0.108330000000     0.280000000000     0.597510000000     0          
H3       H      0.103300000000     0.300700000000     0.585100000000     0          
N1       N      0.000000000000     0.250210000000     0.551260000000     0          
C8       C      0.000000000000     0.198300000000     0.500000000000     0          
O2       O      0.000000000000     0.167600000000     0.500000000000     0          
Zr1      Zr     0.215050000000     0.215050000000     0.721960000000     0          
O3       O      0.248610000000     0.248610000000     0.681800000000     0          
Zr2?     Zr     0.200460000000     0.200460000000     0.733740000000     0          
O4       O      0.218110000000     0.218110000000     0.781890000000     0          
C2       C      0.749550000000     0.028330000000     0.573180000000     0          
O1       O      0.777790000000     0.172030000000     0.685580000000     0          
C3       C      0.747130000000     0.017040000000     0.608400000000     0          
H1       H      0.745800000000     0.031600000000     0.628300000000     0          
C6       C      0.719900000000     0.134300000000     0.623290000000     0          
H2       H      0.699300000000     0.146900000000     0.628200000000     0          
C7       C      0.720000000000     0.108330000000     0.597510000000     0          
H3       H      0.699300000000     0.103300000000     0.585100000000     0          
N1       N      0.749790000000     0.000000000000     0.551260000000     0          
C8       C      0.801700000000     0.000000000000     0.500000000000     0          
O2       O      0.832400000000     0.000000000000     0.500000000000     0          
Zr1      Zr     0.784950000000     0.215050000000     0.721960000000     0          
O3       O      0.751390000000     0.248610000000     0.681800000000     0          
Zr2?     Zr     0.799540000000     0.200460000000     0.733740000000     0          
O4       O      0.781890000000     0.218110000000     0.781890000000     0          
C2       C      0.971670000000     0.250450000000     0.426820000000     0          
O1       O      0.827970000000     0.222210000000     0.314420000000     0          
C3       C      0.982960000000     0.252870000000     0.391600000000     0          
H1       H      0.968400000000     0.254200000000     0.371700000000     0          
C6       C      0.865700000000     0.280100000000     0.376710000000     0          
H2       H      0.853100000000     0.300700000000     0.371800000000     0          
C7       C      0.891670000000     0.280000000000     0.402490000000     0          
H3       H      0.896700000000     0.300700000000     0.414900000000     0          
N1       N      0.000000000000     0.250210000000     0.448740000000     0          
Zr1      Zr     0.784950000000     0.215050000000     0.278040000000     0          
O3       O      0.751390000000     0.248610000000     0.318200000000     0          
Zr2?     Zr     0.799540000000     0.200460000000     0.266260000000     0          
O4       O      0.781890000000     0.218110000000     0.218110000000     0          
C2       C      0.749550000000     0.971670000000     0.426820000000     0          
O1       O      0.777790000000     0.827970000000     0.314420000000     0          
C3       C      0.747130000000     0.982960000000     0.391600000000     0          
H1       H      0.745800000000     0.968400000000     0.371700000000     0          
C6       C      0.719900000000     0.865700000000     0.376710000000     0          
H2       H      0.699300000000     0.853100000000     0.371800000000     0          
C7       C      0.720000000000     0.891670000000     0.402490000000     0          
H3       H      0.699300000000     0.896700000000     0.414900000000     0          
N1       N      0.749790000000     0.000000000000     0.448740000000     0          
Zr1      Zr     0.784950000000     0.784950000000     0.278040000000     0          
O3       O      0.751390000000     0.751390000000     0.318200000000     0          
Zr2?     Zr     0.799540000000     0.799540000000     0.266260000000     0          
O4       O      0.781890000000     0.781890000000     0.218110000000     0          
C2       C      0.028330000000     0.749550000000     0.426820000000     0          
O1       O      0.172030000000     0.777790000000     0.314420000000     0          
C3       C      0.017040000000     0.747130000000     0.391600000000     0          
H1       H      0.031600000000     0.745800000000     0.371700000000     0          
C6       C      0.134300000000     0.719900000000     0.376710000000     0          
H2       H      0.146900000000     0.699300000000     0.371800000000     0          
C7       C      0.108330000000     0.720000000000     0.402490000000     0          
H3       H      0.103300000000     0.699300000000     0.414900000000     0          
N1       N      0.000000000000     0.749790000000     0.448740000000     0          
Zr1      Zr     0.215050000000     0.784950000000     0.278040000000     0          
O3       O      0.248610000000     0.751390000000     0.318200000000     0          
Zr2?     Zr     0.200460000000     0.799540000000     0.266260000000     0          
O4       O      0.218110000000     0.781890000000     0.218110000000     0          
C2       C      0.250450000000     0.028330000000     0.426820000000     0          
O1       O      0.222210000000     0.172030000000     0.314420000000     0          
C3       C      0.252870000000     0.017040000000     0.391600000000     0          
H1       H      0.254200000000     0.031600000000     0.371700000000     0          
C6       C      0.280100000000     0.134300000000     0.376710000000     0          
H2       H      0.300700000000     0.146900000000     0.371800000000     0          
C7       C      0.280000000000     0.108330000000     0.402490000000     0          
H3       H      0.300700000000     0.103300000000     0.414900000000     0          
N1       N      0.250210000000     0.000000000000     0.448740000000     0          
Zr1      Zr     0.215050000000     0.215050000000     0.278040000000     0          
O3       O      0.248610000000     0.248610000000     0.318200000000     0          
Zr2?     Zr     0.200460000000     0.200460000000     0.266260000000     0          
O4       O      0.218110000000     0.218110000000     0.218110000000     0          
C2       C      0.573180000000     0.971670000000     0.749550000000     0          
O1       O      0.685580000000     0.827970000000     0.777790000000     0          
C3       C      0.608400000000     0.982960000000     0.747130000000     0          
H1       H      0.628300000000     0.968400000000     0.745800000000     0          
C6       C      0.623290000000     0.865700000000     0.719900000000     0          
H2       H      0.628200000000     0.853100000000     0.699300000000     0          
C7       C      0.597510000000     0.891670000000     0.720000000000     0          
H3       H      0.585100000000     0.896700000000     0.699300000000     0          
N1       N      0.551260000000     0.000000000000     0.749790000000     0          
C8       C      0.500000000000     0.000000000000     0.801700000000     0          
O2       O      0.500000000000     0.000000000000     0.832400000000     0          
Zr1      Zr     0.721960000000     0.784950000000     0.784950000000     0          
O3       O      0.681800000000     0.751390000000     0.751390000000     0          
Zr2?     Zr     0.733740000000     0.799540000000     0.799540000000     0          
C2       C      0.028330000000     0.573180000000     0.749550000000     0          
O1       O      0.172030000000     0.685580000000     0.777790000000     0          
C3       C      0.017040000000     0.608400000000     0.747130000000     0          
H1       H      0.031600000000     0.628300000000     0.745800000000     0          
C6       C      0.134300000000     0.623290000000     0.719900000000     0          
H2       H      0.146900000000     0.628200000000     0.699300000000     0          
C7       C      0.108330000000     0.597510000000     0.720000000000     0          
H3       H      0.103300000000     0.585100000000     0.699300000000     0          
N1       N      0.000000000000     0.551260000000     0.749790000000     0          
C8       C      0.000000000000     0.500000000000     0.801700000000     0          
O2       O      0.000000000000     0.500000000000     0.832400000000     0          
Zr1      Zr     0.215050000000     0.721960000000     0.784950000000     0          
O3       O      0.248610000000     0.681800000000     0.751390000000     0          
Zr2?     Zr     0.200460000000     0.733740000000     0.799540000000     0          
C2       C      0.426820000000     0.028330000000     0.749550000000     0          
O1       O      0.314420000000     0.172030000000     0.777790000000     0          
C3       C      0.391600000000     0.017040000000     0.747130000000     0          
H1       H      0.371700000000     0.031600000000     0.745800000000     0          
C6       C      0.376710000000     0.134300000000     0.719900000000     0          
H2       H      0.371800000000     0.146900000000     0.699300000000     0          
C7       C      0.402490000000     0.108330000000     0.720000000000     0          
H3       H      0.414900000000     0.103300000000     0.699300000000     0          
N1       N      0.448740000000     0.000000000000     0.749790000000     0          
Zr1      Zr     0.278040000000     0.215050000000     0.784950000000     0          
O3       O      0.318200000000     0.248610000000     0.751390000000     0          
Zr2?     Zr     0.266260000000     0.200460000000     0.799540000000     0          
C2       C      0.971670000000     0.426820000000     0.749550000000     0          
O1       O      0.827970000000     0.314420000000     0.777790000000     0          
C3       C      0.982960000000     0.391600000000     0.747130000000     0          
H1       H      0.968400000000     0.371700000000     0.745800000000     0          
C6       C      0.865700000000     0.376710000000     0.719900000000     0          
H2       H      0.853100000000     0.371800000000     0.699300000000     0          
C7       C      0.891670000000     0.402490000000     0.720000000000     0          
H3       H      0.896700000000     0.414900000000     0.699300000000     0          
N1       N      0.000000000000     0.448740000000     0.749790000000     0          
Zr1      Zr     0.784950000000     0.278040000000     0.784950000000     0          
O3       O      0.751390000000     0.318200000000     0.751390000000     0          
Zr2?     Zr     0.799540000000     0.266260000000     0.799540000000     0          
C2       C      0.573180000000     0.028330000000     0.250450000000     0          
O1       O      0.685580000000     0.172030000000     0.222210000000     0          
C3       C      0.608400000000     0.017040000000     0.252870000000     0          
H1       H      0.628300000000     0.031600000000     0.254200000000     0          
C6       C      0.623290000000     0.134300000000     0.280100000000     0          
H2       H      0.628200000000     0.146900000000     0.300700000000     0          
C7       C      0.597510000000     0.108330000000     0.280000000000     0          
H3       H      0.585100000000     0.103300000000     0.300700000000     0          
N1       N      0.551260000000     0.000000000000     0.250210000000     0          
C8       C      0.500000000000     0.000000000000     0.198300000000     0          
O2       O      0.500000000000     0.000000000000     0.167600000000     0          
Zr1      Zr     0.721960000000     0.215050000000     0.215050000000     0          
O3       O      0.681800000000     0.248610000000     0.248610000000     0          
Zr2?     Zr     0.733740000000     0.200460000000     0.200460000000     0          
C2       C      0.971670000000     0.573180000000     0.250450000000     0          
O1       O      0.827970000000     0.685580000000     0.222210000000     0          
C3       C      0.982960000000     0.608400000000     0.252870000000     0          
H1       H      0.968400000000     0.628300000000     0.254200000000     0          
C6       C      0.865700000000     0.623290000000     0.280100000000     0          
H2       H      0.853100000000     0.628200000000     0.300700000000     0          
C7       C      0.891670000000     0.597510000000     0.280000000000     0          
H3       H      0.896700000000     0.585100000000     0.300700000000     0          
N1       N      0.000000000000     0.551260000000     0.250210000000     0          
C8       C      0.000000000000     0.500000000000     0.198300000000     0          
O2       O      0.000000000000     0.500000000000     0.167600000000     0          
Zr1      Zr     0.784950000000     0.721960000000     0.215050000000     0          
O3       O      0.751390000000     0.681800000000     0.248610000000     0          
Zr2?     Zr     0.799540000000     0.733740000000     0.200460000000     0          
C2       C      0.426820000000     0.971670000000     0.250450000000     0          
O1       O      0.314420000000     0.827970000000     0.222210000000     0          
C3       C      0.391600000000     0.982960000000     0.252870000000     0          
H1       H      0.371700000000     0.968400000000     0.254200000000     0          
C6       C      0.376710000000     0.865700000000     0.280100000000     0          
H2       H      0.371800000000     0.853100000000     0.300700000000     0          
C7       C      0.402490000000     0.891670000000     0.280000000000     0          
H3       H      0.414900000000     0.896700000000     0.300700000000     0          
N1       N      0.448740000000     0.000000000000     0.250210000000     0          
Zr1      Zr     0.278040000000     0.784950000000     0.215050000000     0          
O3       O      0.318200000000     0.751390000000     0.248610000000     0          
Zr2?     Zr     0.266260000000     0.799540000000     0.200460000000     0          
C2       C      0.028330000000     0.426820000000     0.250450000000     0          
O1       O      0.172030000000     0.314420000000     0.222210000000     0          
C3       C      0.017040000000     0.391600000000     0.252870000000     0          
H1       H      0.031600000000     0.371700000000     0.254200000000     0          
C6       C      0.134300000000     0.376710000000     0.280100000000     0          
H2       H      0.146900000000     0.371800000000     0.300700000000     0          
C7       C      0.108330000000     0.402490000000     0.280000000000     0          
H3       H      0.103300000000     0.414900000000     0.300700000000     0          
N1       N      0.000000000000     0.448740000000     0.250210000000     0          
Zr1      Zr     0.215050000000     0.278040000000     0.215050000000     0          
O3       O      0.248610000000     0.318200000000     0.248610000000     0          
Zr2?     Zr     0.200460000000     0.266260000000     0.200460000000     0          
C2       C      0.749550000000     0.573180000000     0.971670000000     0          
O1       O      0.777790000000     0.685580000000     0.827970000000     0          
C3       C      0.747130000000     0.608400000000     0.982960000000     0          
H1       H      0.745800000000     0.628300000000     0.968400000000     0          
C6       C      0.719900000000     0.623290000000     0.865700000000     0          
H2       H      0.699300000000     0.628200000000     0.853100000000     0          
C7       C      0.720000000000     0.597510000000     0.891670000000     0          
H3       H      0.699300000000     0.585100000000     0.896700000000     0          
N1       N      0.749790000000     0.551260000000     0.000000000000     0          
C8       C      0.801700000000     0.500000000000     0.000000000000     0          
O2       O      0.832400000000     0.500000000000     0.000000000000     0          
Zr1      Zr     0.784950000000     0.721960000000     0.784950000000     0          
O3       O      0.751390000000     0.681800000000     0.751390000000     0          
Zr2?     Zr     0.799540000000     0.733740000000     0.799540000000     0          
C2       C      0.749550000000     0.426820000000     0.028330000000     0          
O1       O      0.777790000000     0.314420000000     0.172030000000     0          
C3       C      0.747130000000     0.391600000000     0.017040000000     0          
H1       H      0.745800000000     0.371700000000     0.031600000000     0          
C6       C      0.719900000000     0.376710000000     0.134300000000     0          
H2       H      0.699300000000     0.371800000000     0.146900000000     0          
C7       C      0.720000000000     0.402490000000     0.108330000000     0          
H3       H      0.699300000000     0.414900000000     0.103300000000     0          
N1       N      0.749790000000     0.448740000000     0.000000000000     0          
Zr1      Zr     0.784950000000     0.278040000000     0.215050000000     0          
O3       O      0.751390000000     0.318200000000     0.248610000000     0          
Zr2?     Zr     0.799540000000     0.266260000000     0.200460000000     0          
C2       C      0.573180000000     0.749550000000     0.028330000000     0          
O1       O      0.685580000000     0.777790000000     0.172030000000     0          
C3       C      0.608400000000     0.747130000000     0.017040000000     0          
H1       H      0.628300000000     0.745800000000     0.031600000000     0          
C6       C      0.623290000000     0.719900000000     0.134300000000     0          
H2       H      0.628200000000     0.699300000000     0.146900000000     0          
C7       C      0.597510000000     0.720000000000     0.108330000000     0          
H3       H      0.585100000000     0.699300000000     0.103300000000     0          
N1       N      0.551260000000     0.749790000000     0.000000000000     0          
C8       C      0.500000000000     0.801700000000     0.000000000000     0          
O2       O      0.500000000000     0.832400000000     0.000000000000     0          
Zr1      Zr     0.721960000000     0.784950000000     0.215050000000     0          
O3       O      0.681800000000     0.751390000000     0.248610000000     0          
Zr2?     Zr     0.733740000000     0.799540000000     0.200460000000     0          
C2       C      0.250450000000     0.573180000000     0.028330000000     0          
O1       O      0.222210000000     0.685580000000     0.172030000000     0          
C3       C      0.252870000000     0.608400000000     0.017040000000     0          
H1       H      0.254200000000     0.628300000000     0.031600000000     0          
C6       C      0.280100000000     0.623290000000     0.134300000000     0          
H2       H      0.300700000000     0.628200000000     0.146900000000     0          
C7       C      0.280000000000     0.597510000000     0.108330000000     0          
H3       H      0.300700000000     0.585100000000     0.103300000000     0          
N1       N      0.250210000000     0.551260000000     0.000000000000     0          
C8       C      0.198300000000     0.500000000000     0.000000000000     0          
O2       O      0.167600000000     0.500000000000     0.000000000000     0          
Zr1      Zr     0.215050000000     0.721960000000     0.215050000000     0          
O3       O      0.248610000000     0.681800000000     0.248610000000     0          
Zr2?     Zr     0.200460000000     0.733740000000     0.200460000000     0          
C2       C      0.426820000000     0.250450000000     0.028330000000     0          
O1       O      0.314420000000     0.222210000000     0.172030000000     0          
C3       C      0.391600000000     0.252870000000     0.017040000000     0          
H1       H      0.371700000000     0.254200000000     0.031600000000     0          
C6       C      0.376710000000     0.280100000000     0.134300000000     0          
H2       H      0.371800000000     0.300700000000     0.146900000000     0          
C7       C      0.402490000000     0.280000000000     0.108330000000     0          
H3       H      0.414900000000     0.300700000000     0.103300000000     0          
N1       N      0.448740000000     0.250210000000     0.000000000000     0          
C8       C      0.500000000000     0.198300000000     0.000000000000     0          
O2       O      0.500000000000     0.167600000000     0.000000000000     0          
Zr1      Zr     0.278040000000     0.215050000000     0.215050000000     0          
O3       O      0.318200000000     0.248610000000     0.248610000000     0          
Zr2?     Zr     0.266260000000     0.200460000000     0.200460000000     0          
C2       C      0.250450000000     0.426820000000     0.971670000000     0          
O1       O      0.222210000000     0.314420000000     0.827970000000     0          
C3       C      0.252870000000     0.391600000000     0.982960000000     0          
H1       H      0.254200000000     0.371700000000     0.968400000000     0          
C6       C      0.280100000000     0.376710000000     0.865700000000     0          
H2       H      0.300700000000     0.371800000000     0.853100000000     0          
C7       C      0.280000000000     0.402490000000     0.891670000000     0          
H3       H      0.300700000000     0.414900000000     0.896700000000     0          
N1       N      0.250210000000     0.448740000000     0.000000000000     0          
Zr1      Zr     0.215050000000     0.278040000000     0.784950000000     0          
O3       O      0.248610000000     0.318200000000     0.751390000000     0          
Zr2?     Zr     0.200460000000     0.266260000000     0.799540000000     0          
C2       C      0.573180000000     0.250450000000     0.971670000000     0          
O1       O      0.685580000000     0.222210000000     0.827970000000     0          
C3       C      0.608400000000     0.252870000000     0.982960000000     0          
H1       H      0.628300000000     0.254200000000     0.968400000000     0          
C6       C      0.623290000000     0.280100000000     0.865700000000     0          
H2       H      0.628200000000     0.300700000000     0.853100000000     0          
C7       C      0.597510000000     0.280000000000     0.891670000000     0          
H3       H      0.585100000000     0.300700000000     0.896700000000     0          
N1       N      0.551260000000     0.250210000000     0.000000000000     0          
Zr1      Zr     0.721960000000     0.215050000000     0.784950000000     0          
O3       O      0.681800000000     0.248610000000     0.751390000000     0          
Zr2?     Zr     0.733740000000     0.200460000000     0.799540000000     0          
C2       C      0.426820000000     0.749550000000     0.971670000000     0          
O1       O      0.314420000000     0.777790000000     0.827970000000     0          
C3       C      0.391600000000     0.747130000000     0.982960000000     0          
H1       H      0.371700000000     0.745800000000     0.968400000000     0          
C6       C      0.376710000000     0.719900000000     0.865700000000     0          
H2       H      0.371800000000     0.699300000000     0.853100000000     0          
C7       C      0.402490000000     0.720000000000     0.891670000000     0          
H3       H      0.414900000000     0.699300000000     0.896700000000     0          
N1       N      0.448740000000     0.749790000000     0.000000000000     0          
Zr1      Zr     0.278040000000     0.784950000000     0.784950000000     0          
O3       O      0.318200000000     0.751390000000     0.751390000000     0          
Zr2?     Zr     0.266260000000     0.799540000000     0.799540000000     0          
C2       C      0.028330000000     0.250450000000     0.426820000000     0          
O1       O      0.172030000000     0.222210000000     0.314420000000     0          
C3       C      0.017040000000     0.252870000000     0.391600000000     0          
H1       H      0.031600000000     0.254200000000     0.371700000000     0          
C6       C      0.134300000000     0.280100000000     0.376710000000     0          
H2       H      0.146900000000     0.300700000000     0.371800000000     0          
C7       C      0.108330000000     0.280000000000     0.402490000000     0          
H3       H      0.103300000000     0.300700000000     0.414900000000     0          
C2       C      0.749550000000     0.028330000000     0.426820000000     0          
O1       O      0.777790000000     0.172030000000     0.314420000000     0          
C3       C      0.747130000000     0.017040000000     0.391600000000     0          
H1       H      0.745800000000     0.031600000000     0.371700000000     0          
C6       C      0.719900000000     0.134300000000     0.376710000000     0          
H2       H      0.699300000000     0.146900000000     0.371800000000     0          
C7       C      0.720000000000     0.108330000000     0.402490000000     0          
H3       H      0.699300000000     0.103300000000     0.414900000000     0          
C2       C      0.971670000000     0.749550000000     0.426820000000     0          
O1       O      0.827970000000     0.777790000000     0.314420000000     0          
C3       C      0.982960000000     0.747130000000     0.391600000000     0          
H1       H      0.968400000000     0.745800000000     0.371700000000     0          
C6       C      0.865700000000     0.719900000000     0.376710000000     0          
H2       H      0.853100000000     0.699300000000     0.371800000000     0          
C7       C      0.891670000000     0.720000000000     0.402490000000     0          
H3       H      0.896700000000     0.699300000000     0.414900000000     0          
C2       C      0.250450000000     0.971670000000     0.426820000000     0          
O1       O      0.222210000000     0.827970000000     0.314420000000     0          
C3       C      0.252870000000     0.982960000000     0.391600000000     0          
H1       H      0.254200000000     0.968400000000     0.371700000000     0          
C6       C      0.280100000000     0.865700000000     0.376710000000     0          
H2       H      0.300700000000     0.853100000000     0.371800000000     0          
C7       C      0.280000000000     0.891670000000     0.402490000000     0          
H3       H      0.300700000000     0.896700000000     0.414900000000     0          
C2       C      0.028330000000     0.749550000000     0.573180000000     0          
O1       O      0.172030000000     0.777790000000     0.685580000000     0          
C3       C      0.017040000000     0.747130000000     0.608400000000     0          
H1       H      0.031600000000     0.745800000000     0.628300000000     0          
C6       C      0.134300000000     0.719900000000     0.623290000000     0          
H2       H      0.146900000000     0.699300000000     0.628200000000     0          
C7       C      0.108330000000     0.720000000000     0.597510000000     0          
H3       H      0.103300000000     0.699300000000     0.585100000000     0          
C2       C      0.250450000000     0.028330000000     0.573180000000     0          
O1       O      0.222210000000     0.172030000000     0.685580000000     0          
C3       C      0.252870000000     0.017040000000     0.608400000000     0          
H1       H      0.254200000000     0.031600000000     0.628300000000     0          
C6       C      0.280100000000     0.134300000000     0.623290000000     0          
H2       H      0.300700000000     0.146900000000     0.628200000000     0          
C7       C      0.280000000000     0.108330000000     0.597510000000     0          
H3       H      0.300700000000     0.103300000000     0.585100000000     0          
C2       C      0.971670000000     0.250450000000     0.573180000000     0          
O1       O      0.827970000000     0.222210000000     0.685580000000     0          
C3       C      0.982960000000     0.252870000000     0.608400000000     0          
H1       H      0.968400000000     0.254200000000     0.628300000000     0          
C6       C      0.865700000000     0.280100000000     0.623290000000     0          
H2       H      0.853100000000     0.300700000000     0.628200000000     0          
C7       C      0.891670000000     0.280000000000     0.597510000000     0          
H3       H      0.896700000000     0.300700000000     0.585100000000     0          
C2       C      0.749550000000     0.971670000000     0.573180000000     0          
O1       O      0.777790000000     0.827970000000     0.685580000000     0          
C3       C      0.747130000000     0.982960000000     0.608400000000     0          
H1       H      0.745800000000     0.968400000000     0.628300000000     0          
C6       C      0.719900000000     0.865700000000     0.623290000000     0          
H2       H      0.699300000000     0.853100000000     0.628200000000     0          
C7       C      0.720000000000     0.891670000000     0.597510000000     0          
H3       H      0.699300000000     0.896700000000     0.585100000000     0          
C2       C      0.426820000000     0.028330000000     0.250450000000     0          
O1       O      0.314420000000     0.172030000000     0.222210000000     0          
C3       C      0.391600000000     0.017040000000     0.252870000000     0          
H1       H      0.371700000000     0.031600000000     0.254200000000     0          
C6       C      0.376710000000     0.134300000000     0.280100000000     0          
H2       H      0.371800000000     0.146900000000     0.300700000000     0          
C7       C      0.402490000000     0.108330000000     0.280000000000     0          
H3       H      0.414900000000     0.103300000000     0.300700000000     0          
C2       C      0.971670000000     0.426820000000     0.250450000000     0          
O1       O      0.827970000000     0.314420000000     0.222210000000     0          
C3       C      0.982960000000     0.391600000000     0.252870000000     0          
H1       H      0.968400000000     0.371700000000     0.254200000000     0          
C6       C      0.865700000000     0.376710000000     0.280100000000     0          
H2       H      0.853100000000     0.371800000000     0.300700000000     0          
C7       C      0.891670000000     0.402490000000     0.280000000000     0          
H3       H      0.896700000000     0.414900000000     0.300700000000     0          
C2       C      0.573180000000     0.971670000000     0.250450000000     0          
O1       O      0.685580000000     0.827970000000     0.222210000000     0          
C3       C      0.608400000000     0.982960000000     0.252870000000     0          
H1       H      0.628300000000     0.968400000000     0.254200000000     0          
C6       C      0.623290000000     0.865700000000     0.280100000000     0          
H2       H      0.628200000000     0.853100000000     0.300700000000     0          
C7       C      0.597510000000     0.891670000000     0.280000000000     0          
H3       H      0.585100000000     0.896700000000     0.300700000000     0          
C2       C      0.028330000000     0.573180000000     0.250450000000     0          
O1       O      0.172030000000     0.685580000000     0.222210000000     0          
C3       C      0.017040000000     0.608400000000     0.252870000000     0          
H1       H      0.031600000000     0.628300000000     0.254200000000     0          
C6       C      0.134300000000     0.623290000000     0.280100000000     0          
H2       H      0.146900000000     0.628200000000     0.300700000000     0          
C7       C      0.108330000000     0.597510000000     0.280000000000     0          
H3       H      0.103300000000     0.585100000000     0.300700000000     0          
C2       C      0.426820000000     0.971670000000     0.749550000000     0          
O1       O      0.314420000000     0.827970000000     0.777790000000     0          
C3       C      0.391600000000     0.982960000000     0.747130000000     0          
H1       H      0.371700000000     0.968400000000     0.745800000000     0          
C6       C      0.376710000000     0.865700000000     0.719900000000     0          
H2       H      0.371800000000     0.853100000000     0.699300000000     0          
C7       C      0.402490000000     0.891670000000     0.720000000000     0          
H3       H      0.414900000000     0.896700000000     0.699300000000     0          
C2       C      0.028330000000     0.426820000000     0.749550000000     0          
O1       O      0.172030000000     0.314420000000     0.777790000000     0          
C3       C      0.017040000000     0.391600000000     0.747130000000     0          
H1       H      0.031600000000     0.371700000000     0.745800000000     0          
C6       C      0.134300000000     0.376710000000     0.719900000000     0          
H2       H      0.146900000000     0.371800000000     0.699300000000     0          
C7       C      0.108330000000     0.402490000000     0.720000000000     0          
H3       H      0.103300000000     0.414900000000     0.699300000000     0          
C2       C      0.573180000000     0.028330000000     0.749550000000     0          
O1       O      0.685580000000     0.172030000000     0.777790000000     0          
C3       C      0.608400000000     0.017040000000     0.747130000000     0          
H1       H      0.628300000000     0.031600000000     0.745800000000     0          
C6       C      0.623290000000     0.134300000000     0.719900000000     0          
H2       H      0.628200000000     0.146900000000     0.699300000000     0          
C7       C      0.597510000000     0.108330000000     0.720000000000     0          
H3       H      0.585100000000     0.103300000000     0.699300000000     0          
C2       C      0.971670000000     0.573180000000     0.749550000000     0          
O1       O      0.827970000000     0.685580000000     0.777790000000     0          
C3       C      0.982960000000     0.608400000000     0.747130000000     0          
H1       H      0.968400000000     0.628300000000     0.745800000000     0          
C6       C      0.865700000000     0.623290000000     0.719900000000     0          
H2       H      0.853100000000     0.628200000000     0.699300000000     0          
C7       C      0.891670000000     0.597510000000     0.720000000000     0          
H3       H      0.896700000000     0.585100000000     0.699300000000     0          
C2       C      0.250450000000     0.426820000000     0.028330000000     0          
O1       O      0.222210000000     0.314420000000     0.172030000000     0          
C3       C      0.252870000000     0.391600000000     0.017040000000     0          
H1       H      0.254200000000     0.371700000000     0.031600000000     0          
C6       C      0.280100000000     0.376710000000     0.134300000000     0          
H2       H      0.300700000000     0.371800000000     0.146900000000     0          
C7       C      0.280000000000     0.402490000000     0.108330000000     0          
H3       H      0.300700000000     0.414900000000     0.103300000000     0          
C2       C      0.250450000000     0.573180000000     0.971670000000     0          
O1       O      0.222210000000     0.685580000000     0.827970000000     0          
C3       C      0.252870000000     0.608400000000     0.982960000000     0          
H1       H      0.254200000000     0.628300000000     0.968400000000     0          
C6       C      0.280100000000     0.623290000000     0.865700000000     0          
H2       H      0.300700000000     0.628200000000     0.853100000000     0          
C7       C      0.280000000000     0.597510000000     0.891670000000     0          
H3       H      0.300700000000     0.585100000000     0.896700000000     0          
C2       C      0.426820000000     0.250450000000     0.971670000000     0          
O1       O      0.314420000000     0.222210000000     0.827970000000     0          
C3       C      0.391600000000     0.252870000000     0.982960000000     0          
H1       H      0.371700000000     0.254200000000     0.968400000000     0          
C6       C      0.376710000000     0.280100000000     0.865700000000     0          
H2       H      0.371800000000     0.300700000000     0.853100000000     0          
C7       C      0.402490000000     0.280000000000     0.891670000000     0          
H3       H      0.414900000000     0.300700000000     0.896700000000     0          
C2       C      0.749550000000     0.426820000000     0.971670000000     0          
O1       O      0.777790000000     0.314420000000     0.827970000000     0          
C3       C      0.747130000000     0.391600000000     0.982960000000     0          
H1       H      0.745800000000     0.371700000000     0.968400000000     0          
C6       C      0.719900000000     0.376710000000     0.865700000000     0          
H2       H      0.699300000000     0.371800000000     0.853100000000     0          
C7       C      0.720000000000     0.402490000000     0.891670000000     0          
H3       H      0.699300000000     0.414900000000     0.896700000000     0          
C2       C      0.573180000000     0.749550000000     0.971670000000     0          
O1       O      0.685580000000     0.777790000000     0.827970000000     0          
C3       C      0.608400000000     0.747130000000     0.982960000000     0          
H1       H      0.628300000000     0.745800000000     0.968400000000     0          
C6       C      0.623290000000     0.719900000000     0.865700000000     0          
H2       H      0.628200000000     0.699300000000     0.853100000000     0          
C7       C      0.597510000000     0.720000000000     0.891670000000     0          
H3       H      0.585100000000     0.699300000000     0.896700000000     0          
C2       C      0.749550000000     0.573180000000     0.028330000000     0          
O1       O      0.777790000000     0.685580000000     0.172030000000     0          
C3       C      0.747130000000     0.608400000000     0.017040000000     0          
H1       H      0.745800000000     0.628300000000     0.031600000000     0          
C6       C      0.719900000000     0.623290000000     0.134300000000     0          
H2       H      0.699300000000     0.628200000000     0.146900000000     0          
C7       C      0.720000000000     0.597510000000     0.108330000000     0          
H3       H      0.699300000000     0.585100000000     0.103300000000     0          
C2       C      0.426820000000     0.749550000000     0.028330000000     0          
O1       O      0.314420000000     0.777790000000     0.172030000000     0          
C3       C      0.391600000000     0.747130000000     0.017040000000     0          
H1       H      0.371700000000     0.745800000000     0.031600000000     0          
C6       C      0.376710000000     0.719900000000     0.134300000000     0          
H2       H      0.371800000000     0.699300000000     0.146900000000     0          
C7       C      0.402490000000     0.720000000000     0.108330000000     0          
H3       H      0.414900000000     0.699300000000     0.103300000000     0          
C2       C      0.573180000000     0.250450000000     0.028330000000     0          
O1       O      0.685580000000     0.222210000000     0.172030000000     0          
C3       C      0.608400000000     0.252870000000     0.017040000000     0          
H1       H      0.628300000000     0.254200000000     0.031600000000     0          
C6       C      0.623290000000     0.280100000000     0.134300000000     0          
H2       H      0.628200000000     0.300700000000     0.146900000000     0          
C7       C      0.597510000000     0.280000000000     0.108330000000     0          
H3       H      0.585100000000     0.300700000000     0.103300000000     0          


