data_DAQPET

_audit_creation_method RASPA-1.0
_audit_creation_date 2020-11-2
_audit_author_name 'Rocio Bueno-Perez'

_cell_length_a    38.5333
_cell_length_b    38.5333
_cell_length_c    38.5333
_cell_angle_alpha 90
_cell_angle_beta  90
_cell_angle_gamma 90
_cell_volume      57214.8

_symmetry_cell_setting          cubic
_symmetry_space_group_name_Hall 'P 1'
_symmetry_space_group_name_H-M  'P 1'
_symmetry_Int_Tables_number     1

_symmetry_equiv_pos_as_xyz 'x,y,z'

loop_
_atom_site_label
_atom_site_type_symbol
_atom_site_fract_x
_atom_site_fract_y
_atom_site_fract_z
_atom_site_charge
C2       C      0.471830000000     0.248800000000     0.072740000000     0          
O1       O      0.327710000000     0.276900000000     0.185070000000     0          
C3       C      0.483220000000     0.246600000000     0.108720000000     0          
H1       H      0.468600000000     0.245400000000     0.128600000000     0          
C6       C      0.365330000000     0.220700000000     0.122100000000     0          
H2       H      0.351900000000     0.200400000000     0.126100000000     0          
C7       C      0.391600000000     0.220200000000     0.096800000000     0          
H3       H      0.396700000000     0.199400000000     0.084400000000     0          
C1       C      0.409770000000     0.250000000000     0.090230000000     0          
C4       C      0.437230000000     0.250000000000     0.062770000000     0          
C5       C      0.358940000000     0.250000000000     0.141060000000     0          
C9       C      0.331730000000     0.250000000000     0.168270000000     0          
N1       N      0.500000000000     0.249500000000     0.051180000000     0          
Co1      Co     0.500000000000     0.250000000000     0.000000000000     0          
C8       C      0.500000000000     0.307900000000     0.000000000000     0          
O2       O      0.500000000000     0.338900000000     0.000000000000     0          
Zr1      Zr     0.285350000000     0.285350000000     0.222250000000     0          
O3       O      0.260400000000     0.260400000000     0.200700000000     0          
Zr2?     Zr     0.299610000000     0.299610000000     0.233800000000     0          
O5       O      0.282060000000     0.282060000000     0.282060000000     0          
C2       C      0.751200000000     0.471830000000     0.072740000000     0          
O1       O      0.723100000000     0.327710000000     0.185070000000     0          
C3       C      0.753400000000     0.483220000000     0.108720000000     0          
H1       H      0.754600000000     0.468600000000     0.128600000000     0          
C6       C      0.779300000000     0.365330000000     0.122100000000     0          
H2       H      0.799600000000     0.351900000000     0.126100000000     0          
C7       C      0.779800000000     0.391600000000     0.096800000000     0          
H3       H      0.800600000000     0.396700000000     0.084400000000     0          
C1       C      0.750000000000     0.409770000000     0.090230000000     0          
C4       C      0.750000000000     0.437230000000     0.062770000000     0          
C5       C      0.750000000000     0.358940000000     0.141060000000     0          
C9       C      0.750000000000     0.331730000000     0.168270000000     0          
N1       N      0.750500000000     0.500000000000     0.051180000000     0          
Co1      Co     0.750000000000     0.500000000000     0.000000000000     0          
C8       C      0.692100000000     0.500000000000     0.000000000000     0          
O2       O      0.661100000000     0.500000000000     0.000000000000     0          
Zr1      Zr     0.714650000000     0.285350000000     0.222250000000     0          
O3       O      0.739600000000     0.260400000000     0.200700000000     0          
Zr2?     Zr     0.700390000000     0.299610000000     0.233800000000     0          
O5       O      0.717940000000     0.282060000000     0.282060000000     0          
C2       C      0.528170000000     0.751200000000     0.072740000000     0          
O1       O      0.672290000000     0.723100000000     0.185070000000     0          
C3       C      0.516780000000     0.753400000000     0.108720000000     0          
H1       H      0.531400000000     0.754600000000     0.128600000000     0          
C6       C      0.634670000000     0.779300000000     0.122100000000     0          
H2       H      0.648100000000     0.799600000000     0.126100000000     0          
C7       C      0.608400000000     0.779800000000     0.096800000000     0          
H3       H      0.603300000000     0.800600000000     0.084400000000     0          
C1       C      0.590230000000     0.750000000000     0.090230000000     0          
C4       C      0.562770000000     0.750000000000     0.062770000000     0          
C5       C      0.641060000000     0.750000000000     0.141060000000     0          
C9       C      0.668270000000     0.750000000000     0.168270000000     0          
N1       N      0.500000000000     0.750500000000     0.051180000000     0          
Co1      Co     0.500000000000     0.750000000000     0.000000000000     0          
C8       C      0.500000000000     0.692100000000     0.000000000000     0          
O2       O      0.500000000000     0.661100000000     0.000000000000     0          
Zr1      Zr     0.714650000000     0.714650000000     0.222250000000     0          
O3       O      0.739600000000     0.739600000000     0.200700000000     0          
Zr2?     Zr     0.700390000000     0.700390000000     0.233800000000     0          
O5       O      0.717940000000     0.717940000000     0.282060000000     0          
C2       C      0.248800000000     0.528170000000     0.072740000000     0          
O1       O      0.276900000000     0.672290000000     0.185070000000     0          
C3       C      0.246600000000     0.516780000000     0.108720000000     0          
H1       H      0.245400000000     0.531400000000     0.128600000000     0          
C6       C      0.220700000000     0.634670000000     0.122100000000     0          
H2       H      0.200400000000     0.648100000000     0.126100000000     0          
C7       C      0.220200000000     0.608400000000     0.096800000000     0          
H3       H      0.199400000000     0.603300000000     0.084400000000     0          
C1       C      0.250000000000     0.590230000000     0.090230000000     0          
C4       C      0.250000000000     0.562770000000     0.062770000000     0          
C5       C      0.250000000000     0.641060000000     0.141060000000     0          
C9       C      0.250000000000     0.668270000000     0.168270000000     0          
N1       N      0.249500000000     0.500000000000     0.051180000000     0          
Co1      Co     0.250000000000     0.500000000000     0.000000000000     0          
C8       C      0.307900000000     0.500000000000     0.000000000000     0          
O2       O      0.338900000000     0.500000000000     0.000000000000     0          
Zr1      Zr     0.285350000000     0.714650000000     0.222250000000     0          
O3       O      0.260400000000     0.739600000000     0.200700000000     0          
Zr2?     Zr     0.299610000000     0.700390000000     0.233800000000     0          
O5       O      0.282060000000     0.717940000000     0.282060000000     0          
C2       C      0.471830000000     0.751200000000     0.927260000000     0          
O1       O      0.327710000000     0.723100000000     0.814930000000     0          
C3       C      0.483220000000     0.753400000000     0.891280000000     0          
H1       H      0.468600000000     0.754600000000     0.871400000000     0          
C6       C      0.365330000000     0.779300000000     0.877900000000     0          
H2       H      0.351900000000     0.799600000000     0.873900000000     0          
C7       C      0.391600000000     0.779800000000     0.903200000000     0          
H3       H      0.396700000000     0.800600000000     0.915600000000     0          
C1       C      0.409770000000     0.750000000000     0.909770000000     0          
C4       C      0.437230000000     0.750000000000     0.937230000000     0          
C5       C      0.358940000000     0.750000000000     0.858940000000     0          
C9       C      0.331730000000     0.750000000000     0.831730000000     0          
N1       N      0.500000000000     0.750500000000     0.948820000000     0          
Zr1      Zr     0.285350000000     0.714650000000     0.777750000000     0          
O3       O      0.260400000000     0.739600000000     0.799300000000     0          
Zr2?     Zr     0.299610000000     0.700390000000     0.766200000000     0          
O5       O      0.282060000000     0.717940000000     0.717940000000     0          
C2       C      0.248800000000     0.471830000000     0.927260000000     0          
O1       O      0.276900000000     0.327710000000     0.814930000000     0          
C3       C      0.246600000000     0.483220000000     0.891280000000     0          
H1       H      0.245400000000     0.468600000000     0.871400000000     0          
C6       C      0.220700000000     0.365330000000     0.877900000000     0          
H2       H      0.200400000000     0.351900000000     0.873900000000     0          
C7       C      0.220200000000     0.391600000000     0.903200000000     0          
H3       H      0.199400000000     0.396700000000     0.915600000000     0          
C1       C      0.250000000000     0.409770000000     0.909770000000     0          
C4       C      0.250000000000     0.437230000000     0.937230000000     0          
C5       C      0.250000000000     0.358940000000     0.858940000000     0          
C9       C      0.250000000000     0.331730000000     0.831730000000     0          
N1       N      0.249500000000     0.500000000000     0.948820000000     0          
Zr1      Zr     0.285350000000     0.285350000000     0.777750000000     0          
O3       O      0.260400000000     0.260400000000     0.799300000000     0          
Zr2?     Zr     0.299610000000     0.299610000000     0.766200000000     0          
O5       O      0.282060000000     0.282060000000     0.717940000000     0          
C2       C      0.528170000000     0.248800000000     0.927260000000     0          
O1       O      0.672290000000     0.276900000000     0.814930000000     0          
C3       C      0.516780000000     0.246600000000     0.891280000000     0          
H1       H      0.531400000000     0.245400000000     0.871400000000     0          
C6       C      0.634670000000     0.220700000000     0.877900000000     0          
H2       H      0.648100000000     0.200400000000     0.873900000000     0          
C7       C      0.608400000000     0.220200000000     0.903200000000     0          
H3       H      0.603300000000     0.199400000000     0.915600000000     0          
C1       C      0.590230000000     0.250000000000     0.909770000000     0          
C4       C      0.562770000000     0.250000000000     0.937230000000     0          
C5       C      0.641060000000     0.250000000000     0.858940000000     0          
C9       C      0.668270000000     0.250000000000     0.831730000000     0          
N1       N      0.500000000000     0.249500000000     0.948820000000     0          
Zr1      Zr     0.714650000000     0.285350000000     0.777750000000     0          
O3       O      0.739600000000     0.260400000000     0.799300000000     0          
Zr2?     Zr     0.700390000000     0.299610000000     0.766200000000     0          
O5       O      0.717940000000     0.282060000000     0.717940000000     0          
C2       C      0.751200000000     0.528170000000     0.927260000000     0          
O1       O      0.723100000000     0.672290000000     0.814930000000     0          
C3       C      0.753400000000     0.516780000000     0.891280000000     0          
H1       H      0.754600000000     0.531400000000     0.871400000000     0          
C6       C      0.779300000000     0.634670000000     0.877900000000     0          
H2       H      0.799600000000     0.648100000000     0.873900000000     0          
C7       C      0.779800000000     0.608400000000     0.903200000000     0          
H3       H      0.800600000000     0.603300000000     0.915600000000     0          
C1       C      0.750000000000     0.590230000000     0.909770000000     0          
C4       C      0.750000000000     0.562770000000     0.937230000000     0          
C5       C      0.750000000000     0.641060000000     0.858940000000     0          
C9       C      0.750000000000     0.668270000000     0.831730000000     0          
N1       N      0.750500000000     0.500000000000     0.948820000000     0          
Zr1      Zr     0.714650000000     0.714650000000     0.777750000000     0          
O3       O      0.739600000000     0.739600000000     0.799300000000     0          
Zr2?     Zr     0.700390000000     0.700390000000     0.766200000000     0          
O5       O      0.717940000000     0.717940000000     0.717940000000     0          
C2       C      0.072740000000     0.471830000000     0.248800000000     0          
O1       O      0.185070000000     0.327710000000     0.276900000000     0          
C3       C      0.108720000000     0.483220000000     0.246600000000     0          
H1       H      0.128600000000     0.468600000000     0.245400000000     0          
C6       C      0.122100000000     0.365330000000     0.220700000000     0          
H2       H      0.126100000000     0.351900000000     0.200400000000     0          
C7       C      0.096800000000     0.391600000000     0.220200000000     0          
H3       H      0.084400000000     0.396700000000     0.199400000000     0          
C1       C      0.090230000000     0.409770000000     0.250000000000     0          
C4       C      0.062770000000     0.437230000000     0.250000000000     0          
C5       C      0.141060000000     0.358940000000     0.250000000000     0          
C9       C      0.168270000000     0.331730000000     0.250000000000     0          
N1       N      0.051180000000     0.500000000000     0.249500000000     0          
Co1      Co     0.000000000000     0.500000000000     0.250000000000     0          
C8       C      0.000000000000     0.500000000000     0.307900000000     0          
O2       O      0.000000000000     0.500000000000     0.338900000000     0          
Zr1      Zr     0.222250000000     0.285350000000     0.285350000000     0          
O3       O      0.200700000000     0.260400000000     0.260400000000     0          
Zr2?     Zr     0.233800000000     0.299610000000     0.299610000000     0          
C2       C      0.528170000000     0.072740000000     0.248800000000     0          
O1       O      0.672290000000     0.185070000000     0.276900000000     0          
C3       C      0.516780000000     0.108720000000     0.246600000000     0          
H1       H      0.531400000000     0.128600000000     0.245400000000     0          
C6       C      0.634670000000     0.122100000000     0.220700000000     0          
H2       H      0.648100000000     0.126100000000     0.200400000000     0          
C7       C      0.608400000000     0.096800000000     0.220200000000     0          
H3       H      0.603300000000     0.084400000000     0.199400000000     0          
C1       C      0.590230000000     0.090230000000     0.250000000000     0          
C4       C      0.562770000000     0.062770000000     0.250000000000     0          
C5       C      0.641060000000     0.141060000000     0.250000000000     0          
C9       C      0.668270000000     0.168270000000     0.250000000000     0          
N1       N      0.500000000000     0.051180000000     0.249500000000     0          
Co1      Co     0.500000000000     0.000000000000     0.250000000000     0          
C8       C      0.500000000000     0.000000000000     0.307900000000     0          
O2       O      0.500000000000     0.000000000000     0.338900000000     0          
Zr1      Zr     0.714650000000     0.222250000000     0.285350000000     0          
O3       O      0.739600000000     0.200700000000     0.260400000000     0          
Zr2?     Zr     0.700390000000     0.233800000000     0.299610000000     0          
C2       C      0.927260000000     0.528170000000     0.248800000000     0          
O1       O      0.814930000000     0.672290000000     0.276900000000     0          
C3       C      0.891280000000     0.516780000000     0.246600000000     0          
H1       H      0.871400000000     0.531400000000     0.245400000000     0          
C6       C      0.877900000000     0.634670000000     0.220700000000     0          
H2       H      0.873900000000     0.648100000000     0.200400000000     0          
C7       C      0.903200000000     0.608400000000     0.220200000000     0          
H3       H      0.915600000000     0.603300000000     0.199400000000     0          
C1       C      0.909770000000     0.590230000000     0.250000000000     0          
C4       C      0.937230000000     0.562770000000     0.250000000000     0          
C5       C      0.858940000000     0.641060000000     0.250000000000     0          
C9       C      0.831730000000     0.668270000000     0.250000000000     0          
N1       N      0.948820000000     0.500000000000     0.249500000000     0          
Zr1      Zr     0.777750000000     0.714650000000     0.285350000000     0          
O3       O      0.799300000000     0.739600000000     0.260400000000     0          
Zr2?     Zr     0.766200000000     0.700390000000     0.299610000000     0          
C2       C      0.471830000000     0.927260000000     0.248800000000     0          
O1       O      0.327710000000     0.814930000000     0.276900000000     0          
C3       C      0.483220000000     0.891280000000     0.246600000000     0          
H1       H      0.468600000000     0.871400000000     0.245400000000     0          
C6       C      0.365330000000     0.877900000000     0.220700000000     0          
H2       H      0.351900000000     0.873900000000     0.200400000000     0          
C7       C      0.391600000000     0.903200000000     0.220200000000     0          
H3       H      0.396700000000     0.915600000000     0.199400000000     0          
C1       C      0.409770000000     0.909770000000     0.250000000000     0          
C4       C      0.437230000000     0.937230000000     0.250000000000     0          
C5       C      0.358940000000     0.858940000000     0.250000000000     0          
C9       C      0.331730000000     0.831730000000     0.250000000000     0          
N1       N      0.500000000000     0.948820000000     0.249500000000     0          
Zr1      Zr     0.285350000000     0.777750000000     0.285350000000     0          
O3       O      0.260400000000     0.799300000000     0.260400000000     0          
Zr2?     Zr     0.299610000000     0.766200000000     0.299610000000     0          
C2       C      0.072740000000     0.528170000000     0.751200000000     0          
O1       O      0.185070000000     0.672290000000     0.723100000000     0          
C3       C      0.108720000000     0.516780000000     0.753400000000     0          
H1       H      0.128600000000     0.531400000000     0.754600000000     0          
C6       C      0.122100000000     0.634670000000     0.779300000000     0          
H2       H      0.126100000000     0.648100000000     0.799600000000     0          
C7       C      0.096800000000     0.608400000000     0.779800000000     0          
H3       H      0.084400000000     0.603300000000     0.800600000000     0          
C1       C      0.090230000000     0.590230000000     0.750000000000     0          
C4       C      0.062770000000     0.562770000000     0.750000000000     0          
C5       C      0.141060000000     0.641060000000     0.750000000000     0          
C9       C      0.168270000000     0.668270000000     0.750000000000     0          
N1       N      0.051180000000     0.500000000000     0.750500000000     0          
Co1      Co     0.000000000000     0.500000000000     0.750000000000     0          
C8       C      0.000000000000     0.500000000000     0.692100000000     0          
O2       O      0.000000000000     0.500000000000     0.661100000000     0          
Zr1      Zr     0.222250000000     0.714650000000     0.714650000000     0          
O3       O      0.200700000000     0.739600000000     0.739600000000     0          
Zr2?     Zr     0.233800000000     0.700390000000     0.700390000000     0          
C2       C      0.471830000000     0.072740000000     0.751200000000     0          
O1       O      0.327710000000     0.185070000000     0.723100000000     0          
C3       C      0.483220000000     0.108720000000     0.753400000000     0          
H1       H      0.468600000000     0.128600000000     0.754600000000     0          
C6       C      0.365330000000     0.122100000000     0.779300000000     0          
H2       H      0.351900000000     0.126100000000     0.799600000000     0          
C7       C      0.391600000000     0.096800000000     0.779800000000     0          
H3       H      0.396700000000     0.084400000000     0.800600000000     0          
C1       C      0.409770000000     0.090230000000     0.750000000000     0          
C4       C      0.437230000000     0.062770000000     0.750000000000     0          
C5       C      0.358940000000     0.141060000000     0.750000000000     0          
C9       C      0.331730000000     0.168270000000     0.750000000000     0          
N1       N      0.500000000000     0.051180000000     0.750500000000     0          
Co1      Co     0.500000000000     0.000000000000     0.750000000000     0          
C8       C      0.500000000000     0.000000000000     0.692100000000     0          
O2       O      0.500000000000     0.000000000000     0.661100000000     0          
Zr1      Zr     0.285350000000     0.222250000000     0.714650000000     0          
O3       O      0.260400000000     0.200700000000     0.739600000000     0          
Zr2?     Zr     0.299610000000     0.233800000000     0.700390000000     0          
C2       C      0.927260000000     0.471830000000     0.751200000000     0          
O1       O      0.814930000000     0.327710000000     0.723100000000     0          
C3       C      0.891280000000     0.483220000000     0.753400000000     0          
H1       H      0.871400000000     0.468600000000     0.754600000000     0          
C6       C      0.877900000000     0.365330000000     0.779300000000     0          
H2       H      0.873900000000     0.351900000000     0.799600000000     0          
C7       C      0.903200000000     0.391600000000     0.779800000000     0          
H3       H      0.915600000000     0.396700000000     0.800600000000     0          
C1       C      0.909770000000     0.409770000000     0.750000000000     0          
C4       C      0.937230000000     0.437230000000     0.750000000000     0          
C5       C      0.858940000000     0.358940000000     0.750000000000     0          
C9       C      0.831730000000     0.331730000000     0.750000000000     0          
N1       N      0.948820000000     0.500000000000     0.750500000000     0          
Zr1      Zr     0.777750000000     0.285350000000     0.714650000000     0          
O3       O      0.799300000000     0.260400000000     0.739600000000     0          
Zr2?     Zr     0.766200000000     0.299610000000     0.700390000000     0          
C2       C      0.528170000000     0.927260000000     0.751200000000     0          
O1       O      0.672290000000     0.814930000000     0.723100000000     0          
C3       C      0.516780000000     0.891280000000     0.753400000000     0          
H1       H      0.531400000000     0.871400000000     0.754600000000     0          
C6       C      0.634670000000     0.877900000000     0.779300000000     0          
H2       H      0.648100000000     0.873900000000     0.799600000000     0          
C7       C      0.608400000000     0.903200000000     0.779800000000     0          
H3       H      0.603300000000     0.915600000000     0.800600000000     0          
C1       C      0.590230000000     0.909770000000     0.750000000000     0          
C4       C      0.562770000000     0.937230000000     0.750000000000     0          
C5       C      0.641060000000     0.858940000000     0.750000000000     0          
C9       C      0.668270000000     0.831730000000     0.750000000000     0          
N1       N      0.500000000000     0.948820000000     0.750500000000     0          
Zr1      Zr     0.714650000000     0.777750000000     0.714650000000     0          
O3       O      0.739600000000     0.799300000000     0.739600000000     0          
Zr2?     Zr     0.700390000000     0.766200000000     0.700390000000     0          
C2       C      0.248800000000     0.072740000000     0.471830000000     0          
O1       O      0.276900000000     0.185070000000     0.327710000000     0          
C3       C      0.246600000000     0.108720000000     0.483220000000     0          
H1       H      0.245400000000     0.128600000000     0.468600000000     0          
C6       C      0.220700000000     0.122100000000     0.365330000000     0          
H2       H      0.200400000000     0.126100000000     0.351900000000     0          
C7       C      0.220200000000     0.096800000000     0.391600000000     0          
H3       H      0.199400000000     0.084400000000     0.396700000000     0          
C1       C      0.250000000000     0.090230000000     0.409770000000     0          
C4       C      0.250000000000     0.062770000000     0.437230000000     0          
C5       C      0.250000000000     0.141060000000     0.358940000000     0          
C9       C      0.250000000000     0.168270000000     0.331730000000     0          
N1       N      0.249500000000     0.051180000000     0.500000000000     0          
Co1      Co     0.250000000000     0.000000000000     0.500000000000     0          
C8       C      0.307900000000     0.000000000000     0.500000000000     0          
O2       O      0.338900000000     0.000000000000     0.500000000000     0          
Zr1      Zr     0.285350000000     0.222250000000     0.285350000000     0          
O3       O      0.260400000000     0.200700000000     0.260400000000     0          
Zr2?     Zr     0.299610000000     0.233800000000     0.299610000000     0          
C2       C      0.248800000000     0.927260000000     0.528170000000     0          
O1       O      0.276900000000     0.814930000000     0.672290000000     0          
C3       C      0.246600000000     0.891280000000     0.516780000000     0          
H1       H      0.245400000000     0.871400000000     0.531400000000     0          
C6       C      0.220700000000     0.877900000000     0.634670000000     0          
H2       H      0.200400000000     0.873900000000     0.648100000000     0          
C7       C      0.220200000000     0.903200000000     0.608400000000     0          
H3       H      0.199400000000     0.915600000000     0.603300000000     0          
C1       C      0.250000000000     0.909770000000     0.590230000000     0          
C4       C      0.250000000000     0.937230000000     0.562770000000     0          
C5       C      0.250000000000     0.858940000000     0.641060000000     0          
C9       C      0.250000000000     0.831730000000     0.668270000000     0          
N1       N      0.249500000000     0.948820000000     0.500000000000     0          
Zr1      Zr     0.285350000000     0.777750000000     0.714650000000     0          
O3       O      0.260400000000     0.799300000000     0.739600000000     0          
Zr2?     Zr     0.299610000000     0.766200000000     0.700390000000     0          
C2       C      0.072740000000     0.248800000000     0.528170000000     0          
O1       O      0.185070000000     0.276900000000     0.672290000000     0          
C3       C      0.108720000000     0.246600000000     0.516780000000     0          
H1       H      0.128600000000     0.245400000000     0.531400000000     0          
C6       C      0.122100000000     0.220700000000     0.634670000000     0          
H2       H      0.126100000000     0.200400000000     0.648100000000     0          
C7       C      0.096800000000     0.220200000000     0.608400000000     0          
H3       H      0.084400000000     0.199400000000     0.603300000000     0          
C1       C      0.090230000000     0.250000000000     0.590230000000     0          
C4       C      0.062770000000     0.250000000000     0.562770000000     0          
C5       C      0.141060000000     0.250000000000     0.641060000000     0          
C9       C      0.168270000000     0.250000000000     0.668270000000     0          
N1       N      0.051180000000     0.249500000000     0.500000000000     0          
Co1      Co     0.000000000000     0.250000000000     0.500000000000     0          
C8       C      0.000000000000     0.307900000000     0.500000000000     0          
O2       O      0.000000000000     0.338900000000     0.500000000000     0          
Zr1      Zr     0.222250000000     0.285350000000     0.714650000000     0          
O3       O      0.200700000000     0.260400000000     0.739600000000     0          
Zr2?     Zr     0.233800000000     0.299610000000     0.700390000000     0          
C2       C      0.751200000000     0.072740000000     0.528170000000     0          
O1       O      0.723100000000     0.185070000000     0.672290000000     0          
C3       C      0.753400000000     0.108720000000     0.516780000000     0          
H1       H      0.754600000000     0.128600000000     0.531400000000     0          
C6       C      0.779300000000     0.122100000000     0.634670000000     0          
H2       H      0.799600000000     0.126100000000     0.648100000000     0          
C7       C      0.779800000000     0.096800000000     0.608400000000     0          
H3       H      0.800600000000     0.084400000000     0.603300000000     0          
C1       C      0.750000000000     0.090230000000     0.590230000000     0          
C4       C      0.750000000000     0.062770000000     0.562770000000     0          
C5       C      0.750000000000     0.141060000000     0.641060000000     0          
C9       C      0.750000000000     0.168270000000     0.668270000000     0          
N1       N      0.750500000000     0.051180000000     0.500000000000     0          
Co1      Co     0.750000000000     0.000000000000     0.500000000000     0          
C8       C      0.692100000000     0.000000000000     0.500000000000     0          
O2       O      0.661100000000     0.000000000000     0.500000000000     0          
Zr1      Zr     0.714650000000     0.222250000000     0.714650000000     0          
O3       O      0.739600000000     0.200700000000     0.739600000000     0          
Zr2?     Zr     0.700390000000     0.233800000000     0.700390000000     0          
C2       C      0.927260000000     0.751200000000     0.528170000000     0          
O1       O      0.814930000000     0.723100000000     0.672290000000     0          
C3       C      0.891280000000     0.753400000000     0.516780000000     0          
H1       H      0.871400000000     0.754600000000     0.531400000000     0          
C6       C      0.877900000000     0.779300000000     0.634670000000     0          
H2       H      0.873900000000     0.799600000000     0.648100000000     0          
C7       C      0.903200000000     0.779800000000     0.608400000000     0          
H3       H      0.915600000000     0.800600000000     0.603300000000     0          
C1       C      0.909770000000     0.750000000000     0.590230000000     0          
C4       C      0.937230000000     0.750000000000     0.562770000000     0          
C5       C      0.858940000000     0.750000000000     0.641060000000     0          
C9       C      0.831730000000     0.750000000000     0.668270000000     0          
N1       N      0.948820000000     0.750500000000     0.500000000000     0          
Co1      Co     0.000000000000     0.750000000000     0.500000000000     0          
C8       C      0.000000000000     0.692100000000     0.500000000000     0          
O2       O      0.000000000000     0.661100000000     0.500000000000     0          
Zr1      Zr     0.777750000000     0.714650000000     0.714650000000     0          
O3       O      0.799300000000     0.739600000000     0.739600000000     0          
Zr2?     Zr     0.766200000000     0.700390000000     0.700390000000     0          
C2       C      0.751200000000     0.927260000000     0.471830000000     0          
O1       O      0.723100000000     0.814930000000     0.327710000000     0          
C3       C      0.753400000000     0.891280000000     0.483220000000     0          
H1       H      0.754600000000     0.871400000000     0.468600000000     0          
C6       C      0.779300000000     0.877900000000     0.365330000000     0          
H2       H      0.799600000000     0.873900000000     0.351900000000     0          
C7       C      0.779800000000     0.903200000000     0.391600000000     0          
H3       H      0.800600000000     0.915600000000     0.396700000000     0          
C1       C      0.750000000000     0.909770000000     0.409770000000     0          
C4       C      0.750000000000     0.937230000000     0.437230000000     0          
C5       C      0.750000000000     0.858940000000     0.358940000000     0          
C9       C      0.750000000000     0.831730000000     0.331730000000     0          
N1       N      0.750500000000     0.948820000000     0.500000000000     0          
Zr1      Zr     0.714650000000     0.777750000000     0.285350000000     0          
O3       O      0.739600000000     0.799300000000     0.260400000000     0          
Zr2?     Zr     0.700390000000     0.766200000000     0.299610000000     0          
C2       C      0.072740000000     0.751200000000     0.471830000000     0          
O1       O      0.185070000000     0.723100000000     0.327710000000     0          
C3       C      0.108720000000     0.753400000000     0.483220000000     0          
H1       H      0.128600000000     0.754600000000     0.468600000000     0          
C6       C      0.122100000000     0.779300000000     0.365330000000     0          
H2       H      0.126100000000     0.799600000000     0.351900000000     0          
C7       C      0.096800000000     0.779800000000     0.391600000000     0          
H3       H      0.084400000000     0.800600000000     0.396700000000     0          
C1       C      0.090230000000     0.750000000000     0.409770000000     0          
C4       C      0.062770000000     0.750000000000     0.437230000000     0          
C5       C      0.141060000000     0.750000000000     0.358940000000     0          
C9       C      0.168270000000     0.750000000000     0.331730000000     0          
N1       N      0.051180000000     0.750500000000     0.500000000000     0          
Zr1      Zr     0.222250000000     0.714650000000     0.285350000000     0          
O3       O      0.200700000000     0.739600000000     0.260400000000     0          
Zr2?     Zr     0.233800000000     0.700390000000     0.299610000000     0          
C2       C      0.927260000000     0.248800000000     0.471830000000     0          
O1       O      0.814930000000     0.276900000000     0.327710000000     0          
C3       C      0.891280000000     0.246600000000     0.483220000000     0          
H1       H      0.871400000000     0.245400000000     0.468600000000     0          
C6       C      0.877900000000     0.220700000000     0.365330000000     0          
H2       H      0.873900000000     0.200400000000     0.351900000000     0          
C7       C      0.903200000000     0.220200000000     0.391600000000     0          
H3       H      0.915600000000     0.199400000000     0.396700000000     0          
C1       C      0.909770000000     0.250000000000     0.409770000000     0          
C4       C      0.937230000000     0.250000000000     0.437230000000     0          
C5       C      0.858940000000     0.250000000000     0.358940000000     0          
C9       C      0.831730000000     0.250000000000     0.331730000000     0          
N1       N      0.948820000000     0.249500000000     0.500000000000     0          
Zr1      Zr     0.777750000000     0.285350000000     0.285350000000     0          
O3       O      0.799300000000     0.260400000000     0.260400000000     0          
Zr2?     Zr     0.766200000000     0.299610000000     0.299610000000     0          
C2       C      0.528170000000     0.751200000000     0.927260000000     0          
O1       O      0.672290000000     0.723100000000     0.814930000000     0          
C3       C      0.516780000000     0.753400000000     0.891280000000     0          
H1       H      0.531400000000     0.754600000000     0.871400000000     0          
C6       C      0.634670000000     0.779300000000     0.877900000000     0          
H2       H      0.648100000000     0.799600000000     0.873900000000     0          
C7       C      0.608400000000     0.779800000000     0.903200000000     0          
H3       H      0.603300000000     0.800600000000     0.915600000000     0          
C1       C      0.590230000000     0.750000000000     0.909770000000     0          
C4       C      0.562770000000     0.750000000000     0.937230000000     0          
C5       C      0.641060000000     0.750000000000     0.858940000000     0          
C9       C      0.668270000000     0.750000000000     0.831730000000     0          
C2       C      0.248800000000     0.528170000000     0.927260000000     0          
O1       O      0.276900000000     0.672290000000     0.814930000000     0          
C3       C      0.246600000000     0.516780000000     0.891280000000     0          
H1       H      0.245400000000     0.531400000000     0.871400000000     0          
C6       C      0.220700000000     0.634670000000     0.877900000000     0          
H2       H      0.200400000000     0.648100000000     0.873900000000     0          
C7       C      0.220200000000     0.608400000000     0.903200000000     0          
H3       H      0.199400000000     0.603300000000     0.915600000000     0          
C1       C      0.250000000000     0.590230000000     0.909770000000     0          
C4       C      0.250000000000     0.562770000000     0.937230000000     0          
C5       C      0.250000000000     0.641060000000     0.858940000000     0          
C9       C      0.250000000000     0.668270000000     0.831730000000     0          
C2       C      0.471830000000     0.248800000000     0.927260000000     0          
O1       O      0.327710000000     0.276900000000     0.814930000000     0          
C3       C      0.483220000000     0.246600000000     0.891280000000     0          
H1       H      0.468600000000     0.245400000000     0.871400000000     0          
C6       C      0.365330000000     0.220700000000     0.877900000000     0          
H2       H      0.351900000000     0.200400000000     0.873900000000     0          
C7       C      0.391600000000     0.220200000000     0.903200000000     0          
H3       H      0.396700000000     0.199400000000     0.915600000000     0          
C1       C      0.409770000000     0.250000000000     0.909770000000     0          
C4       C      0.437230000000     0.250000000000     0.937230000000     0          
C5       C      0.358940000000     0.250000000000     0.858940000000     0          
C9       C      0.331730000000     0.250000000000     0.831730000000     0          
C2       C      0.751200000000     0.471830000000     0.927260000000     0          
O1       O      0.723100000000     0.327710000000     0.814930000000     0          
C3       C      0.753400000000     0.483220000000     0.891280000000     0          
H1       H      0.754600000000     0.468600000000     0.871400000000     0          
C6       C      0.779300000000     0.365330000000     0.877900000000     0          
H2       H      0.799600000000     0.351900000000     0.873900000000     0          
C7       C      0.779800000000     0.391600000000     0.903200000000     0          
H3       H      0.800600000000     0.396700000000     0.915600000000     0          
C1       C      0.750000000000     0.409770000000     0.909770000000     0          
C4       C      0.750000000000     0.437230000000     0.937230000000     0          
C5       C      0.750000000000     0.358940000000     0.858940000000     0          
C9       C      0.750000000000     0.331730000000     0.831730000000     0          
C2       C      0.528170000000     0.248800000000     0.072740000000     0          
O1       O      0.672290000000     0.276900000000     0.185070000000     0          
C3       C      0.516780000000     0.246600000000     0.108720000000     0          
H1       H      0.531400000000     0.245400000000     0.128600000000     0          
C6       C      0.634670000000     0.220700000000     0.122100000000     0          
H2       H      0.648100000000     0.200400000000     0.126100000000     0          
C7       C      0.608400000000     0.220200000000     0.096800000000     0          
H3       H      0.603300000000     0.199400000000     0.084400000000     0          
C1       C      0.590230000000     0.250000000000     0.090230000000     0          
C4       C      0.562770000000     0.250000000000     0.062770000000     0          
C5       C      0.641060000000     0.250000000000     0.141060000000     0          
C9       C      0.668270000000     0.250000000000     0.168270000000     0          
C2       C      0.751200000000     0.528170000000     0.072740000000     0          
O1       O      0.723100000000     0.672290000000     0.185070000000     0          
C3       C      0.753400000000     0.516780000000     0.108720000000     0          
H1       H      0.754600000000     0.531400000000     0.128600000000     0          
C6       C      0.779300000000     0.634670000000     0.122100000000     0          
H2       H      0.799600000000     0.648100000000     0.126100000000     0          
C7       C      0.779800000000     0.608400000000     0.096800000000     0          
H3       H      0.800600000000     0.603300000000     0.084400000000     0          
C1       C      0.750000000000     0.590230000000     0.090230000000     0          
C4       C      0.750000000000     0.562770000000     0.062770000000     0          
C5       C      0.750000000000     0.641060000000     0.141060000000     0          
C9       C      0.750000000000     0.668270000000     0.168270000000     0          
C2       C      0.471830000000     0.751200000000     0.072740000000     0          
O1       O      0.327710000000     0.723100000000     0.185070000000     0          
C3       C      0.483220000000     0.753400000000     0.108720000000     0          
H1       H      0.468600000000     0.754600000000     0.128600000000     0          
C6       C      0.365330000000     0.779300000000     0.122100000000     0          
H2       H      0.351900000000     0.799600000000     0.126100000000     0          
C7       C      0.391600000000     0.779800000000     0.096800000000     0          
H3       H      0.396700000000     0.800600000000     0.084400000000     0          
C1       C      0.409770000000     0.750000000000     0.090230000000     0          
C4       C      0.437230000000     0.750000000000     0.062770000000     0          
C5       C      0.358940000000     0.750000000000     0.141060000000     0          
C9       C      0.331730000000     0.750000000000     0.168270000000     0          
C2       C      0.248800000000     0.471830000000     0.072740000000     0          
O1       O      0.276900000000     0.327710000000     0.185070000000     0          
C3       C      0.246600000000     0.483220000000     0.108720000000     0          
H1       H      0.245400000000     0.468600000000     0.128600000000     0          
C6       C      0.220700000000     0.365330000000     0.122100000000     0          
H2       H      0.200400000000     0.351900000000     0.126100000000     0          
C7       C      0.220200000000     0.391600000000     0.096800000000     0          
H3       H      0.199400000000     0.396700000000     0.084400000000     0          
C1       C      0.250000000000     0.409770000000     0.090230000000     0          
C4       C      0.250000000000     0.437230000000     0.062770000000     0          
C5       C      0.250000000000     0.358940000000     0.141060000000     0          
C9       C      0.250000000000     0.331730000000     0.168270000000     0          
C2       C      0.927260000000     0.528170000000     0.751200000000     0          
O1       O      0.814930000000     0.672290000000     0.723100000000     0          
C3       C      0.891280000000     0.516780000000     0.753400000000     0          
H1       H      0.871400000000     0.531400000000     0.754600000000     0          
C6       C      0.877900000000     0.634670000000     0.779300000000     0          
H2       H      0.873900000000     0.648100000000     0.799600000000     0          
C7       C      0.903200000000     0.608400000000     0.779800000000     0          
H3       H      0.915600000000     0.603300000000     0.800600000000     0          
C1       C      0.909770000000     0.590230000000     0.750000000000     0          
C4       C      0.937230000000     0.562770000000     0.750000000000     0          
C5       C      0.858940000000     0.641060000000     0.750000000000     0          
C9       C      0.831730000000     0.668270000000     0.750000000000     0          
C2       C      0.471830000000     0.927260000000     0.751200000000     0          
O1       O      0.327710000000     0.814930000000     0.723100000000     0          
C3       C      0.483220000000     0.891280000000     0.753400000000     0          
H1       H      0.468600000000     0.871400000000     0.754600000000     0          
C6       C      0.365330000000     0.877900000000     0.779300000000     0          
H2       H      0.351900000000     0.873900000000     0.799600000000     0          
C7       C      0.391600000000     0.903200000000     0.779800000000     0          
H3       H      0.396700000000     0.915600000000     0.800600000000     0          
C1       C      0.409770000000     0.909770000000     0.750000000000     0          
C4       C      0.437230000000     0.937230000000     0.750000000000     0          
C5       C      0.358940000000     0.858940000000     0.750000000000     0          
C9       C      0.331730000000     0.831730000000     0.750000000000     0          
C2       C      0.072740000000     0.471830000000     0.751200000000     0          
O1       O      0.185070000000     0.327710000000     0.723100000000     0          
C3       C      0.108720000000     0.483220000000     0.753400000000     0          
H1       H      0.128600000000     0.468600000000     0.754600000000     0          
C6       C      0.122100000000     0.365330000000     0.779300000000     0          
H2       H      0.126100000000     0.351900000000     0.799600000000     0          
C7       C      0.096800000000     0.391600000000     0.779800000000     0          
H3       H      0.084400000000     0.396700000000     0.800600000000     0          
C1       C      0.090230000000     0.409770000000     0.750000000000     0          
C4       C      0.062770000000     0.437230000000     0.750000000000     0          
C5       C      0.141060000000     0.358940000000     0.750000000000     0          
C9       C      0.168270000000     0.331730000000     0.750000000000     0          
C2       C      0.528170000000     0.072740000000     0.751200000000     0          
O1       O      0.672290000000     0.185070000000     0.723100000000     0          
C3       C      0.516780000000     0.108720000000     0.753400000000     0          
H1       H      0.531400000000     0.128600000000     0.754600000000     0          
C6       C      0.634670000000     0.122100000000     0.779300000000     0          
H2       H      0.648100000000     0.126100000000     0.799600000000     0          
C7       C      0.608400000000     0.096800000000     0.779800000000     0          
H3       H      0.603300000000     0.084400000000     0.800600000000     0          
C1       C      0.590230000000     0.090230000000     0.750000000000     0          
C4       C      0.562770000000     0.062770000000     0.750000000000     0          
C5       C      0.641060000000     0.141060000000     0.750000000000     0          
C9       C      0.668270000000     0.168270000000     0.750000000000     0          
C2       C      0.927260000000     0.471830000000     0.248800000000     0          
O1       O      0.814930000000     0.327710000000     0.276900000000     0          
C3       C      0.891280000000     0.483220000000     0.246600000000     0          
H1       H      0.871400000000     0.468600000000     0.245400000000     0          
C6       C      0.877900000000     0.365330000000     0.220700000000     0          
H2       H      0.873900000000     0.351900000000     0.200400000000     0          
C7       C      0.903200000000     0.391600000000     0.220200000000     0          
H3       H      0.915600000000     0.396700000000     0.199400000000     0          
C1       C      0.909770000000     0.409770000000     0.250000000000     0          
C4       C      0.937230000000     0.437230000000     0.250000000000     0          
C5       C      0.858940000000     0.358940000000     0.250000000000     0          
C9       C      0.831730000000     0.331730000000     0.250000000000     0          
C2       C      0.528170000000     0.927260000000     0.248800000000     0          
O1       O      0.672290000000     0.814930000000     0.276900000000     0          
C3       C      0.516780000000     0.891280000000     0.246600000000     0          
H1       H      0.531400000000     0.871400000000     0.245400000000     0          
C6       C      0.634670000000     0.877900000000     0.220700000000     0          
H2       H      0.648100000000     0.873900000000     0.200400000000     0          
C7       C      0.608400000000     0.903200000000     0.220200000000     0          
H3       H      0.603300000000     0.915600000000     0.199400000000     0          
C1       C      0.590230000000     0.909770000000     0.250000000000     0          
C4       C      0.562770000000     0.937230000000     0.250000000000     0          
C5       C      0.641060000000     0.858940000000     0.250000000000     0          
C9       C      0.668270000000     0.831730000000     0.250000000000     0          
C2       C      0.072740000000     0.528170000000     0.248800000000     0          
O1       O      0.185070000000     0.672290000000     0.276900000000     0          
C3       C      0.108720000000     0.516780000000     0.246600000000     0          
H1       H      0.128600000000     0.531400000000     0.245400000000     0          
C6       C      0.122100000000     0.634670000000     0.220700000000     0          
H2       H      0.126100000000     0.648100000000     0.200400000000     0          
C7       C      0.096800000000     0.608400000000     0.220200000000     0          
H3       H      0.084400000000     0.603300000000     0.199400000000     0          
C1       C      0.090230000000     0.590230000000     0.250000000000     0          
C4       C      0.062770000000     0.562770000000     0.250000000000     0          
C5       C      0.141060000000     0.641060000000     0.250000000000     0          
C9       C      0.168270000000     0.668270000000     0.250000000000     0          
C2       C      0.471830000000     0.072740000000     0.248800000000     0          
O1       O      0.327710000000     0.185070000000     0.276900000000     0          
C3       C      0.483220000000     0.108720000000     0.246600000000     0          
H1       H      0.468600000000     0.128600000000     0.245400000000     0          
C6       C      0.365330000000     0.122100000000     0.220700000000     0          
H2       H      0.351900000000     0.126100000000     0.200400000000     0          
C7       C      0.391600000000     0.096800000000     0.220200000000     0          
H3       H      0.396700000000     0.084400000000     0.199400000000     0          
C1       C      0.409770000000     0.090230000000     0.250000000000     0          
C4       C      0.437230000000     0.062770000000     0.250000000000     0          
C5       C      0.358940000000     0.141060000000     0.250000000000     0          
C9       C      0.331730000000     0.168270000000     0.250000000000     0          
C2       C      0.751200000000     0.927260000000     0.528170000000     0          
O1       O      0.723100000000     0.814930000000     0.672290000000     0          
C3       C      0.753400000000     0.891280000000     0.516780000000     0          
H1       H      0.754600000000     0.871400000000     0.531400000000     0          
C6       C      0.779300000000     0.877900000000     0.634670000000     0          
H2       H      0.799600000000     0.873900000000     0.648100000000     0          
C7       C      0.779800000000     0.903200000000     0.608400000000     0          
H3       H      0.800600000000     0.915600000000     0.603300000000     0          
C1       C      0.750000000000     0.909770000000     0.590230000000     0          
C4       C      0.750000000000     0.937230000000     0.562770000000     0          
C5       C      0.750000000000     0.858940000000     0.641060000000     0          
C9       C      0.750000000000     0.831730000000     0.668270000000     0          
C2       C      0.751200000000     0.072740000000     0.471830000000     0          
O1       O      0.723100000000     0.185070000000     0.327710000000     0          
C3       C      0.753400000000     0.108720000000     0.483220000000     0          
H1       H      0.754600000000     0.128600000000     0.468600000000     0          
C6       C      0.779300000000     0.122100000000     0.365330000000     0          
H2       H      0.799600000000     0.126100000000     0.351900000000     0          
C7       C      0.779800000000     0.096800000000     0.391600000000     0          
H3       H      0.800600000000     0.084400000000     0.396700000000     0          
C1       C      0.750000000000     0.090230000000     0.409770000000     0          
C4       C      0.750000000000     0.062770000000     0.437230000000     0          
C5       C      0.750000000000     0.141060000000     0.358940000000     0          
C9       C      0.750000000000     0.168270000000     0.331730000000     0          
C2       C      0.927260000000     0.751200000000     0.471830000000     0          
O1       O      0.814930000000     0.723100000000     0.327710000000     0          
C3       C      0.891280000000     0.753400000000     0.483220000000     0          
H1       H      0.871400000000     0.754600000000     0.468600000000     0          
C6       C      0.877900000000     0.779300000000     0.365330000000     0          
H2       H      0.873900000000     0.799600000000     0.351900000000     0          
C7       C      0.903200000000     0.779800000000     0.391600000000     0          
H3       H      0.915600000000     0.800600000000     0.396700000000     0          
C1       C      0.909770000000     0.750000000000     0.409770000000     0          
C4       C      0.937230000000     0.750000000000     0.437230000000     0          
C5       C      0.858940000000     0.750000000000     0.358940000000     0          
C9       C      0.831730000000     0.750000000000     0.331730000000     0          
C2       C      0.248800000000     0.927260000000     0.471830000000     0          
O1       O      0.276900000000     0.814930000000     0.327710000000     0          
C3       C      0.246600000000     0.891280000000     0.483220000000     0          
H1       H      0.245400000000     0.871400000000     0.468600000000     0          
C6       C      0.220700000000     0.877900000000     0.365330000000     0          
H2       H      0.200400000000     0.873900000000     0.351900000000     0          
C7       C      0.220200000000     0.903200000000     0.391600000000     0          
H3       H      0.199400000000     0.915600000000     0.396700000000     0          
C1       C      0.250000000000     0.909770000000     0.409770000000     0          
C4       C      0.250000000000     0.937230000000     0.437230000000     0          
C5       C      0.250000000000     0.858940000000     0.358940000000     0          
C9       C      0.250000000000     0.831730000000     0.331730000000     0          
C2       C      0.072740000000     0.248800000000     0.471830000000     0          
O1       O      0.185070000000     0.276900000000     0.327710000000     0          
C3       C      0.108720000000     0.246600000000     0.483220000000     0          
H1       H      0.128600000000     0.245400000000     0.468600000000     0          
C6       C      0.122100000000     0.220700000000     0.365330000000     0          
H2       H      0.126100000000     0.200400000000     0.351900000000     0          
C7       C      0.096800000000     0.220200000000     0.391600000000     0          
H3       H      0.084400000000     0.199400000000     0.396700000000     0          
C1       C      0.090230000000     0.250000000000     0.409770000000     0          
C4       C      0.062770000000     0.250000000000     0.437230000000     0          
C5       C      0.141060000000     0.250000000000     0.358940000000     0          
C9       C      0.168270000000     0.250000000000     0.331730000000     0          
C2       C      0.248800000000     0.072740000000     0.528170000000     0          
O1       O      0.276900000000     0.185070000000     0.672290000000     0          
C3       C      0.246600000000     0.108720000000     0.516780000000     0          
H1       H      0.245400000000     0.128600000000     0.531400000000     0          
C6       C      0.220700000000     0.122100000000     0.634670000000     0          
H2       H      0.200400000000     0.126100000000     0.648100000000     0          
C7       C      0.220200000000     0.096800000000     0.608400000000     0          
H3       H      0.199400000000     0.084400000000     0.603300000000     0          
C1       C      0.250000000000     0.090230000000     0.590230000000     0          
C4       C      0.250000000000     0.062770000000     0.562770000000     0          
C5       C      0.250000000000     0.141060000000     0.641060000000     0          
C9       C      0.250000000000     0.168270000000     0.668270000000     0          
C2       C      0.927260000000     0.248800000000     0.528170000000     0          
O1       O      0.814930000000     0.276900000000     0.672290000000     0          
C3       C      0.891280000000     0.246600000000     0.516780000000     0          
H1       H      0.871400000000     0.245400000000     0.531400000000     0          
C6       C      0.877900000000     0.220700000000     0.634670000000     0          
H2       H      0.873900000000     0.200400000000     0.648100000000     0          
C7       C      0.903200000000     0.220200000000     0.608400000000     0          
H3       H      0.915600000000     0.199400000000     0.603300000000     0          
C1       C      0.909770000000     0.250000000000     0.590230000000     0          
C4       C      0.937230000000     0.250000000000     0.562770000000     0          
C5       C      0.858940000000     0.250000000000     0.641060000000     0          
C9       C      0.831730000000     0.250000000000     0.668270000000     0          
C2       C      0.072740000000     0.751200000000     0.528170000000     0          
O1       O      0.185070000000     0.723100000000     0.672290000000     0          
C3       C      0.108720000000     0.753400000000     0.516780000000     0          
H1       H      0.128600000000     0.754600000000     0.531400000000     0          
C6       C      0.122100000000     0.779300000000     0.634670000000     0          
H2       H      0.126100000000     0.799600000000     0.648100000000     0          
C7       C      0.096800000000     0.779800000000     0.608400000000     0          
H3       H      0.084400000000     0.800600000000     0.603300000000     0          
C1       C      0.090230000000     0.750000000000     0.590230000000     0          
C4       C      0.062770000000     0.750000000000     0.562770000000     0          
C5       C      0.141060000000     0.750000000000     0.641060000000     0          
C9       C      0.168270000000     0.750000000000     0.668270000000     0          
C2       C      0.971830000000     0.748800000000     0.572740000000     0          
O1       O      0.827710000000     0.776900000000     0.685070000000     0          
C3       C      0.983220000000     0.746600000000     0.608720000000     0          
H1       H      0.968600000000     0.745400000000     0.628600000000     0          
C6       C      0.865330000000     0.720700000000     0.622100000000     0          
H2       H      0.851900000000     0.700400000000     0.626100000000     0          
C7       C      0.891600000000     0.720200000000     0.596800000000     0          
H3       H      0.896700000000     0.699400000000     0.584400000000     0          
N1       N      0.000000000000     0.749500000000     0.551180000000     0          
C8       C      0.000000000000     0.807900000000     0.500000000000     0          
O2       O      0.000000000000     0.838900000000     0.500000000000     0          
Zr1      Zr     0.785350000000     0.785350000000     0.722250000000     0          
O3       O      0.760400000000     0.760400000000     0.700700000000     0          
Zr2?     Zr     0.799610000000     0.799610000000     0.733800000000     0          
O5       O      0.782060000000     0.782060000000     0.782060000000     0          
C2       C      0.251200000000     0.971830000000     0.572740000000     0          
O1       O      0.223100000000     0.827710000000     0.685070000000     0          
C3       C      0.253400000000     0.983220000000     0.608720000000     0          
H1       H      0.254600000000     0.968600000000     0.628600000000     0          
C6       C      0.279300000000     0.865330000000     0.622100000000     0          
H2       H      0.299600000000     0.851900000000     0.626100000000     0          
C7       C      0.279800000000     0.891600000000     0.596800000000     0          
H3       H      0.300600000000     0.896700000000     0.584400000000     0          
N1       N      0.250500000000     0.000000000000     0.551180000000     0          
C8       C      0.192100000000     0.000000000000     0.500000000000     0          
O2       O      0.161100000000     0.000000000000     0.500000000000     0          
Zr1      Zr     0.214650000000     0.785350000000     0.722250000000     0          
O3       O      0.239600000000     0.760400000000     0.700700000000     0          
Zr2?     Zr     0.200390000000     0.799610000000     0.733800000000     0          
O5       O      0.217940000000     0.782060000000     0.782060000000     0          
C2       C      0.028170000000     0.251200000000     0.572740000000     0          
O1       O      0.172290000000     0.223100000000     0.685070000000     0          
C3       C      0.016780000000     0.253400000000     0.608720000000     0          
H1       H      0.031400000000     0.254600000000     0.628600000000     0          
C6       C      0.134670000000     0.279300000000     0.622100000000     0          
H2       H      0.148100000000     0.299600000000     0.626100000000     0          
C7       C      0.108400000000     0.279800000000     0.596800000000     0          
H3       H      0.103300000000     0.300600000000     0.584400000000     0          
N1       N      0.000000000000     0.250500000000     0.551180000000     0          
C8       C      0.000000000000     0.192100000000     0.500000000000     0          
O2       O      0.000000000000     0.161100000000     0.500000000000     0          
Zr1      Zr     0.214650000000     0.214650000000     0.722250000000     0          
O3       O      0.239600000000     0.239600000000     0.700700000000     0          
Zr2?     Zr     0.200390000000     0.200390000000     0.733800000000     0          
O5       O      0.217940000000     0.217940000000     0.782060000000     0          
C2       C      0.748800000000     0.028170000000     0.572740000000     0          
O1       O      0.776900000000     0.172290000000     0.685070000000     0          
C3       C      0.746600000000     0.016780000000     0.608720000000     0          
H1       H      0.745400000000     0.031400000000     0.628600000000     0          
C6       C      0.720700000000     0.134670000000     0.622100000000     0          
H2       H      0.700400000000     0.148100000000     0.626100000000     0          
C7       C      0.720200000000     0.108400000000     0.596800000000     0          
H3       H      0.699400000000     0.103300000000     0.584400000000     0          
N1       N      0.749500000000     0.000000000000     0.551180000000     0          
C8       C      0.807900000000     0.000000000000     0.500000000000     0          
O2       O      0.838900000000     0.000000000000     0.500000000000     0          
Zr1      Zr     0.785350000000     0.214650000000     0.722250000000     0          
O3       O      0.760400000000     0.239600000000     0.700700000000     0          
Zr2?     Zr     0.799610000000     0.200390000000     0.733800000000     0          
O5       O      0.782060000000     0.217940000000     0.782060000000     0          
C2       C      0.971830000000     0.251200000000     0.427260000000     0          
O1       O      0.827710000000     0.223100000000     0.314930000000     0          
C3       C      0.983220000000     0.253400000000     0.391280000000     0          
H1       H      0.968600000000     0.254600000000     0.371400000000     0          
C6       C      0.865330000000     0.279300000000     0.377900000000     0          
H2       H      0.851900000000     0.299600000000     0.373900000000     0          
C7       C      0.891600000000     0.279800000000     0.403200000000     0          
H3       H      0.896700000000     0.300600000000     0.415600000000     0          
N1       N      0.000000000000     0.250500000000     0.448820000000     0          
Zr1      Zr     0.785350000000     0.214650000000     0.277750000000     0          
O3       O      0.760400000000     0.239600000000     0.299300000000     0          
Zr2?     Zr     0.799610000000     0.200390000000     0.266200000000     0          
O5       O      0.782060000000     0.217940000000     0.217940000000     0          
C2       C      0.748800000000     0.971830000000     0.427260000000     0          
O1       O      0.776900000000     0.827710000000     0.314930000000     0          
C3       C      0.746600000000     0.983220000000     0.391280000000     0          
H1       H      0.745400000000     0.968600000000     0.371400000000     0          
C6       C      0.720700000000     0.865330000000     0.377900000000     0          
H2       H      0.700400000000     0.851900000000     0.373900000000     0          
C7       C      0.720200000000     0.891600000000     0.403200000000     0          
H3       H      0.699400000000     0.896700000000     0.415600000000     0          
N1       N      0.749500000000     0.000000000000     0.448820000000     0          
Zr1      Zr     0.785350000000     0.785350000000     0.277750000000     0          
O3       O      0.760400000000     0.760400000000     0.299300000000     0          
Zr2?     Zr     0.799610000000     0.799610000000     0.266200000000     0          
O5       O      0.782060000000     0.782060000000     0.217940000000     0          
C2       C      0.028170000000     0.748800000000     0.427260000000     0          
O1       O      0.172290000000     0.776900000000     0.314930000000     0          
C3       C      0.016780000000     0.746600000000     0.391280000000     0          
H1       H      0.031400000000     0.745400000000     0.371400000000     0          
C6       C      0.134670000000     0.720700000000     0.377900000000     0          
H2       H      0.148100000000     0.700400000000     0.373900000000     0          
C7       C      0.108400000000     0.720200000000     0.403200000000     0          
H3       H      0.103300000000     0.699400000000     0.415600000000     0          
N1       N      0.000000000000     0.749500000000     0.448820000000     0          
Zr1      Zr     0.214650000000     0.785350000000     0.277750000000     0          
O3       O      0.239600000000     0.760400000000     0.299300000000     0          
Zr2?     Zr     0.200390000000     0.799610000000     0.266200000000     0          
O5       O      0.217940000000     0.782060000000     0.217940000000     0          
C2       C      0.251200000000     0.028170000000     0.427260000000     0          
O1       O      0.223100000000     0.172290000000     0.314930000000     0          
C3       C      0.253400000000     0.016780000000     0.391280000000     0          
H1       H      0.254600000000     0.031400000000     0.371400000000     0          
C6       C      0.279300000000     0.134670000000     0.377900000000     0          
H2       H      0.299600000000     0.148100000000     0.373900000000     0          
C7       C      0.279800000000     0.108400000000     0.403200000000     0          
H3       H      0.300600000000     0.103300000000     0.415600000000     0          
N1       N      0.250500000000     0.000000000000     0.448820000000     0          
Zr1      Zr     0.214650000000     0.214650000000     0.277750000000     0          
O3       O      0.239600000000     0.239600000000     0.299300000000     0          
Zr2?     Zr     0.200390000000     0.200390000000     0.266200000000     0          
O5       O      0.217940000000     0.217940000000     0.217940000000     0          
C2       C      0.572740000000     0.971830000000     0.748800000000     0          
O1       O      0.685070000000     0.827710000000     0.776900000000     0          
C3       C      0.608720000000     0.983220000000     0.746600000000     0          
H1       H      0.628600000000     0.968600000000     0.745400000000     0          
C6       C      0.622100000000     0.865330000000     0.720700000000     0          
H2       H      0.626100000000     0.851900000000     0.700400000000     0          
C7       C      0.596800000000     0.891600000000     0.720200000000     0          
H3       H      0.584400000000     0.896700000000     0.699400000000     0          
N1       N      0.551180000000     0.000000000000     0.749500000000     0          
C8       C      0.500000000000     0.000000000000     0.807900000000     0          
O2       O      0.500000000000     0.000000000000     0.838900000000     0          
Zr1      Zr     0.722250000000     0.785350000000     0.785350000000     0          
O3       O      0.700700000000     0.760400000000     0.760400000000     0          
Zr2?     Zr     0.733800000000     0.799610000000     0.799610000000     0          
C2       C      0.028170000000     0.572740000000     0.748800000000     0          
O1       O      0.172290000000     0.685070000000     0.776900000000     0          
C3       C      0.016780000000     0.608720000000     0.746600000000     0          
H1       H      0.031400000000     0.628600000000     0.745400000000     0          
C6       C      0.134670000000     0.622100000000     0.720700000000     0          
H2       H      0.148100000000     0.626100000000     0.700400000000     0          
C7       C      0.108400000000     0.596800000000     0.720200000000     0          
H3       H      0.103300000000     0.584400000000     0.699400000000     0          
N1       N      0.000000000000     0.551180000000     0.749500000000     0          
C8       C      0.000000000000     0.500000000000     0.807900000000     0          
O2       O      0.000000000000     0.500000000000     0.838900000000     0          
Zr1      Zr     0.214650000000     0.722250000000     0.785350000000     0          
O3       O      0.239600000000     0.700700000000     0.760400000000     0          
Zr2?     Zr     0.200390000000     0.733800000000     0.799610000000     0          
C2       C      0.427260000000     0.028170000000     0.748800000000     0          
O1       O      0.314930000000     0.172290000000     0.776900000000     0          
C3       C      0.391280000000     0.016780000000     0.746600000000     0          
H1       H      0.371400000000     0.031400000000     0.745400000000     0          
C6       C      0.377900000000     0.134670000000     0.720700000000     0          
H2       H      0.373900000000     0.148100000000     0.700400000000     0          
C7       C      0.403200000000     0.108400000000     0.720200000000     0          
H3       H      0.415600000000     0.103300000000     0.699400000000     0          
N1       N      0.448820000000     0.000000000000     0.749500000000     0          
Zr1      Zr     0.277750000000     0.214650000000     0.785350000000     0          
O3       O      0.299300000000     0.239600000000     0.760400000000     0          
Zr2?     Zr     0.266200000000     0.200390000000     0.799610000000     0          
C2       C      0.971830000000     0.427260000000     0.748800000000     0          
O1       O      0.827710000000     0.314930000000     0.776900000000     0          
C3       C      0.983220000000     0.391280000000     0.746600000000     0          
H1       H      0.968600000000     0.371400000000     0.745400000000     0          
C6       C      0.865330000000     0.377900000000     0.720700000000     0          
H2       H      0.851900000000     0.373900000000     0.700400000000     0          
C7       C      0.891600000000     0.403200000000     0.720200000000     0          
H3       H      0.896700000000     0.415600000000     0.699400000000     0          
N1       N      0.000000000000     0.448820000000     0.749500000000     0          
Zr1      Zr     0.785350000000     0.277750000000     0.785350000000     0          
O3       O      0.760400000000     0.299300000000     0.760400000000     0          
Zr2?     Zr     0.799610000000     0.266200000000     0.799610000000     0          
C2       C      0.572740000000     0.028170000000     0.251200000000     0          
O1       O      0.685070000000     0.172290000000     0.223100000000     0          
C3       C      0.608720000000     0.016780000000     0.253400000000     0          
H1       H      0.628600000000     0.031400000000     0.254600000000     0          
C6       C      0.622100000000     0.134670000000     0.279300000000     0          
H2       H      0.626100000000     0.148100000000     0.299600000000     0          
C7       C      0.596800000000     0.108400000000     0.279800000000     0          
H3       H      0.584400000000     0.103300000000     0.300600000000     0          
N1       N      0.551180000000     0.000000000000     0.250500000000     0          
C8       C      0.500000000000     0.000000000000     0.192100000000     0          
O2       O      0.500000000000     0.000000000000     0.161100000000     0          
Zr1      Zr     0.722250000000     0.214650000000     0.214650000000     0          
O3       O      0.700700000000     0.239600000000     0.239600000000     0          
Zr2?     Zr     0.733800000000     0.200390000000     0.200390000000     0          
C2       C      0.971830000000     0.572740000000     0.251200000000     0          
O1       O      0.827710000000     0.685070000000     0.223100000000     0          
C3       C      0.983220000000     0.608720000000     0.253400000000     0          
H1       H      0.968600000000     0.628600000000     0.254600000000     0          
C6       C      0.865330000000     0.622100000000     0.279300000000     0          
H2       H      0.851900000000     0.626100000000     0.299600000000     0          
C7       C      0.891600000000     0.596800000000     0.279800000000     0          
H3       H      0.896700000000     0.584400000000     0.300600000000     0          
N1       N      0.000000000000     0.551180000000     0.250500000000     0          
C8       C      0.000000000000     0.500000000000     0.192100000000     0          
O2       O      0.000000000000     0.500000000000     0.161100000000     0          
Zr1      Zr     0.785350000000     0.722250000000     0.214650000000     0          
O3       O      0.760400000000     0.700700000000     0.239600000000     0          
Zr2?     Zr     0.799610000000     0.733800000000     0.200390000000     0          
C2       C      0.427260000000     0.971830000000     0.251200000000     0          
O1       O      0.314930000000     0.827710000000     0.223100000000     0          
C3       C      0.391280000000     0.983220000000     0.253400000000     0          
H1       H      0.371400000000     0.968600000000     0.254600000000     0          
C6       C      0.377900000000     0.865330000000     0.279300000000     0          
H2       H      0.373900000000     0.851900000000     0.299600000000     0          
C7       C      0.403200000000     0.891600000000     0.279800000000     0          
H3       H      0.415600000000     0.896700000000     0.300600000000     0          
N1       N      0.448820000000     0.000000000000     0.250500000000     0          
Zr1      Zr     0.277750000000     0.785350000000     0.214650000000     0          
O3       O      0.299300000000     0.760400000000     0.239600000000     0          
Zr2?     Zr     0.266200000000     0.799610000000     0.200390000000     0          
C2       C      0.028170000000     0.427260000000     0.251200000000     0          
O1       O      0.172290000000     0.314930000000     0.223100000000     0          
C3       C      0.016780000000     0.391280000000     0.253400000000     0          
H1       H      0.031400000000     0.371400000000     0.254600000000     0          
C6       C      0.134670000000     0.377900000000     0.279300000000     0          
H2       H      0.148100000000     0.373900000000     0.299600000000     0          
C7       C      0.108400000000     0.403200000000     0.279800000000     0          
H3       H      0.103300000000     0.415600000000     0.300600000000     0          
N1       N      0.000000000000     0.448820000000     0.250500000000     0          
Zr1      Zr     0.214650000000     0.277750000000     0.214650000000     0          
O3       O      0.239600000000     0.299300000000     0.239600000000     0          
Zr2?     Zr     0.200390000000     0.266200000000     0.200390000000     0          
C2       C      0.748800000000     0.572740000000     0.971830000000     0          
O1       O      0.776900000000     0.685070000000     0.827710000000     0          
C3       C      0.746600000000     0.608720000000     0.983220000000     0          
H1       H      0.745400000000     0.628600000000     0.968600000000     0          
C6       C      0.720700000000     0.622100000000     0.865330000000     0          
H2       H      0.700400000000     0.626100000000     0.851900000000     0          
C7       C      0.720200000000     0.596800000000     0.891600000000     0          
H3       H      0.699400000000     0.584400000000     0.896700000000     0          
N1       N      0.749500000000     0.551180000000     0.000000000000     0          
C8       C      0.807900000000     0.500000000000     0.000000000000     0          
O2       O      0.838900000000     0.500000000000     0.000000000000     0          
Zr1      Zr     0.785350000000     0.722250000000     0.785350000000     0          
O3       O      0.760400000000     0.700700000000     0.760400000000     0          
Zr2?     Zr     0.799610000000     0.733800000000     0.799610000000     0          
C2       C      0.748800000000     0.427260000000     0.028170000000     0          
O1       O      0.776900000000     0.314930000000     0.172290000000     0          
C3       C      0.746600000000     0.391280000000     0.016780000000     0          
H1       H      0.745400000000     0.371400000000     0.031400000000     0          
C6       C      0.720700000000     0.377900000000     0.134670000000     0          
H2       H      0.700400000000     0.373900000000     0.148100000000     0          
C7       C      0.720200000000     0.403200000000     0.108400000000     0          
H3       H      0.699400000000     0.415600000000     0.103300000000     0          
N1       N      0.749500000000     0.448820000000     0.000000000000     0          
Zr1      Zr     0.785350000000     0.277750000000     0.214650000000     0          
O3       O      0.760400000000     0.299300000000     0.239600000000     0          
Zr2?     Zr     0.799610000000     0.266200000000     0.200390000000     0          
C2       C      0.572740000000     0.748800000000     0.028170000000     0          
O1       O      0.685070000000     0.776900000000     0.172290000000     0          
C3       C      0.608720000000     0.746600000000     0.016780000000     0          
H1       H      0.628600000000     0.745400000000     0.031400000000     0          
C6       C      0.622100000000     0.720700000000     0.134670000000     0          
H2       H      0.626100000000     0.700400000000     0.148100000000     0          
C7       C      0.596800000000     0.720200000000     0.108400000000     0          
H3       H      0.584400000000     0.699400000000     0.103300000000     0          
N1       N      0.551180000000     0.749500000000     0.000000000000     0          
C8       C      0.500000000000     0.807900000000     0.000000000000     0          
O2       O      0.500000000000     0.838900000000     0.000000000000     0          
Zr1      Zr     0.722250000000     0.785350000000     0.214650000000     0          
O3       O      0.700700000000     0.760400000000     0.239600000000     0          
Zr2?     Zr     0.733800000000     0.799610000000     0.200390000000     0          
C2       C      0.251200000000     0.572740000000     0.028170000000     0          
O1       O      0.223100000000     0.685070000000     0.172290000000     0          
C3       C      0.253400000000     0.608720000000     0.016780000000     0          
H1       H      0.254600000000     0.628600000000     0.031400000000     0          
C6       C      0.279300000000     0.622100000000     0.134670000000     0          
H2       H      0.299600000000     0.626100000000     0.148100000000     0          
C7       C      0.279800000000     0.596800000000     0.108400000000     0          
H3       H      0.300600000000     0.584400000000     0.103300000000     0          
N1       N      0.250500000000     0.551180000000     0.000000000000     0          
C8       C      0.192100000000     0.500000000000     0.000000000000     0          
O2       O      0.161100000000     0.500000000000     0.000000000000     0          
Zr1      Zr     0.214650000000     0.722250000000     0.214650000000     0          
O3       O      0.239600000000     0.700700000000     0.239600000000     0          
Zr2?     Zr     0.200390000000     0.733800000000     0.200390000000     0          
C2       C      0.427260000000     0.251200000000     0.028170000000     0          
O1       O      0.314930000000     0.223100000000     0.172290000000     0          
C3       C      0.391280000000     0.253400000000     0.016780000000     0          
H1       H      0.371400000000     0.254600000000     0.031400000000     0          
C6       C      0.377900000000     0.279300000000     0.134670000000     0          
H2       H      0.373900000000     0.299600000000     0.148100000000     0          
C7       C      0.403200000000     0.279800000000     0.108400000000     0          
H3       H      0.415600000000     0.300600000000     0.103300000000     0          
N1       N      0.448820000000     0.250500000000     0.000000000000     0          
C8       C      0.500000000000     0.192100000000     0.000000000000     0          
O2       O      0.500000000000     0.161100000000     0.000000000000     0          
Zr1      Zr     0.277750000000     0.214650000000     0.214650000000     0          
O3       O      0.299300000000     0.239600000000     0.239600000000     0          
Zr2?     Zr     0.266200000000     0.200390000000     0.200390000000     0          
C2       C      0.251200000000     0.427260000000     0.971830000000     0          
O1       O      0.223100000000     0.314930000000     0.827710000000     0          
C3       C      0.253400000000     0.391280000000     0.983220000000     0          
H1       H      0.254600000000     0.371400000000     0.968600000000     0          
C6       C      0.279300000000     0.377900000000     0.865330000000     0          
H2       H      0.299600000000     0.373900000000     0.851900000000     0          
C7       C      0.279800000000     0.403200000000     0.891600000000     0          
H3       H      0.300600000000     0.415600000000     0.896700000000     0          
N1       N      0.250500000000     0.448820000000     0.000000000000     0          
Zr1      Zr     0.214650000000     0.277750000000     0.785350000000     0          
O3       O      0.239600000000     0.299300000000     0.760400000000     0          
Zr2?     Zr     0.200390000000     0.266200000000     0.799610000000     0          
C2       C      0.572740000000     0.251200000000     0.971830000000     0          
O1       O      0.685070000000     0.223100000000     0.827710000000     0          
C3       C      0.608720000000     0.253400000000     0.983220000000     0          
H1       H      0.628600000000     0.254600000000     0.968600000000     0          
C6       C      0.622100000000     0.279300000000     0.865330000000     0          
H2       H      0.626100000000     0.299600000000     0.851900000000     0          
C7       C      0.596800000000     0.279800000000     0.891600000000     0          
H3       H      0.584400000000     0.300600000000     0.896700000000     0          
N1       N      0.551180000000     0.250500000000     0.000000000000     0          
Zr1      Zr     0.722250000000     0.214650000000     0.785350000000     0          
O3       O      0.700700000000     0.239600000000     0.760400000000     0          
Zr2?     Zr     0.733800000000     0.200390000000     0.799610000000     0          
C2       C      0.427260000000     0.748800000000     0.971830000000     0          
O1       O      0.314930000000     0.776900000000     0.827710000000     0          
C3       C      0.391280000000     0.746600000000     0.983220000000     0          
H1       H      0.371400000000     0.745400000000     0.968600000000     0          
C6       C      0.377900000000     0.720700000000     0.865330000000     0          
H2       H      0.373900000000     0.700400000000     0.851900000000     0          
C7       C      0.403200000000     0.720200000000     0.891600000000     0          
H3       H      0.415600000000     0.699400000000     0.896700000000     0          
N1       N      0.448820000000     0.749500000000     0.000000000000     0          
Zr1      Zr     0.277750000000     0.785350000000     0.785350000000     0          
O3       O      0.299300000000     0.760400000000     0.760400000000     0          
Zr2?     Zr     0.266200000000     0.799610000000     0.799610000000     0          
C2       C      0.028170000000     0.251200000000     0.427260000000     0          
O1       O      0.172290000000     0.223100000000     0.314930000000     0          
C3       C      0.016780000000     0.253400000000     0.391280000000     0          
H1       H      0.031400000000     0.254600000000     0.371400000000     0          
C6       C      0.134670000000     0.279300000000     0.377900000000     0          
H2       H      0.148100000000     0.299600000000     0.373900000000     0          
C7       C      0.108400000000     0.279800000000     0.403200000000     0          
H3       H      0.103300000000     0.300600000000     0.415600000000     0          
C2       C      0.748800000000     0.028170000000     0.427260000000     0          
O1       O      0.776900000000     0.172290000000     0.314930000000     0          
C3       C      0.746600000000     0.016780000000     0.391280000000     0          
H1       H      0.745400000000     0.031400000000     0.371400000000     0          
C6       C      0.720700000000     0.134670000000     0.377900000000     0          
H2       H      0.700400000000     0.148100000000     0.373900000000     0          
C7       C      0.720200000000     0.108400000000     0.403200000000     0          
H3       H      0.699400000000     0.103300000000     0.415600000000     0          
C2       C      0.971830000000     0.748800000000     0.427260000000     0          
O1       O      0.827710000000     0.776900000000     0.314930000000     0          
C3       C      0.983220000000     0.746600000000     0.391280000000     0          
H1       H      0.968600000000     0.745400000000     0.371400000000     0          
C6       C      0.865330000000     0.720700000000     0.377900000000     0          
H2       H      0.851900000000     0.700400000000     0.373900000000     0          
C7       C      0.891600000000     0.720200000000     0.403200000000     0          
H3       H      0.896700000000     0.699400000000     0.415600000000     0          
C2       C      0.251200000000     0.971830000000     0.427260000000     0          
O1       O      0.223100000000     0.827710000000     0.314930000000     0          
C3       C      0.253400000000     0.983220000000     0.391280000000     0          
H1       H      0.254600000000     0.968600000000     0.371400000000     0          
C6       C      0.279300000000     0.865330000000     0.377900000000     0          
H2       H      0.299600000000     0.851900000000     0.373900000000     0          
C7       C      0.279800000000     0.891600000000     0.403200000000     0          
H3       H      0.300600000000     0.896700000000     0.415600000000     0          
C2       C      0.028170000000     0.748800000000     0.572740000000     0          
O1       O      0.172290000000     0.776900000000     0.685070000000     0          
C3       C      0.016780000000     0.746600000000     0.608720000000     0          
H1       H      0.031400000000     0.745400000000     0.628600000000     0          
C6       C      0.134670000000     0.720700000000     0.622100000000     0          
H2       H      0.148100000000     0.700400000000     0.626100000000     0          
C7       C      0.108400000000     0.720200000000     0.596800000000     0          
H3       H      0.103300000000     0.699400000000     0.584400000000     0          
C2       C      0.251200000000     0.028170000000     0.572740000000     0          
O1       O      0.223100000000     0.172290000000     0.685070000000     0          
C3       C      0.253400000000     0.016780000000     0.608720000000     0          
H1       H      0.254600000000     0.031400000000     0.628600000000     0          
C6       C      0.279300000000     0.134670000000     0.622100000000     0          
H2       H      0.299600000000     0.148100000000     0.626100000000     0          
C7       C      0.279800000000     0.108400000000     0.596800000000     0          
H3       H      0.300600000000     0.103300000000     0.584400000000     0          
C2       C      0.971830000000     0.251200000000     0.572740000000     0          
O1       O      0.827710000000     0.223100000000     0.685070000000     0          
C3       C      0.983220000000     0.253400000000     0.608720000000     0          
H1       H      0.968600000000     0.254600000000     0.628600000000     0          
C6       C      0.865330000000     0.279300000000     0.622100000000     0          
H2       H      0.851900000000     0.299600000000     0.626100000000     0          
C7       C      0.891600000000     0.279800000000     0.596800000000     0          
H3       H      0.896700000000     0.300600000000     0.584400000000     0          
C2       C      0.748800000000     0.971830000000     0.572740000000     0          
O1       O      0.776900000000     0.827710000000     0.685070000000     0          
C3       C      0.746600000000     0.983220000000     0.608720000000     0          
H1       H      0.745400000000     0.968600000000     0.628600000000     0          
C6       C      0.720700000000     0.865330000000     0.622100000000     0          
H2       H      0.700400000000     0.851900000000     0.626100000000     0          
C7       C      0.720200000000     0.891600000000     0.596800000000     0          
H3       H      0.699400000000     0.896700000000     0.584400000000     0          
C2       C      0.427260000000     0.028170000000     0.251200000000     0          
O1       O      0.314930000000     0.172290000000     0.223100000000     0          
C3       C      0.391280000000     0.016780000000     0.253400000000     0          
H1       H      0.371400000000     0.031400000000     0.254600000000     0          
C6       C      0.377900000000     0.134670000000     0.279300000000     0          
H2       H      0.373900000000     0.148100000000     0.299600000000     0          
C7       C      0.403200000000     0.108400000000     0.279800000000     0          
H3       H      0.415600000000     0.103300000000     0.300600000000     0          
C2       C      0.971830000000     0.427260000000     0.251200000000     0          
O1       O      0.827710000000     0.314930000000     0.223100000000     0          
C3       C      0.983220000000     0.391280000000     0.253400000000     0          
H1       H      0.968600000000     0.371400000000     0.254600000000     0          
C6       C      0.865330000000     0.377900000000     0.279300000000     0          
H2       H      0.851900000000     0.373900000000     0.299600000000     0          
C7       C      0.891600000000     0.403200000000     0.279800000000     0          
H3       H      0.896700000000     0.415600000000     0.300600000000     0          
C2       C      0.572740000000     0.971830000000     0.251200000000     0          
O1       O      0.685070000000     0.827710000000     0.223100000000     0          
C3       C      0.608720000000     0.983220000000     0.253400000000     0          
H1       H      0.628600000000     0.968600000000     0.254600000000     0          
C6       C      0.622100000000     0.865330000000     0.279300000000     0          
H2       H      0.626100000000     0.851900000000     0.299600000000     0          
C7       C      0.596800000000     0.891600000000     0.279800000000     0          
H3       H      0.584400000000     0.896700000000     0.300600000000     0          
C2       C      0.028170000000     0.572740000000     0.251200000000     0          
O1       O      0.172290000000     0.685070000000     0.223100000000     0          
C3       C      0.016780000000     0.608720000000     0.253400000000     0          
H1       H      0.031400000000     0.628600000000     0.254600000000     0          
C6       C      0.134670000000     0.622100000000     0.279300000000     0          
H2       H      0.148100000000     0.626100000000     0.299600000000     0          
C7       C      0.108400000000     0.596800000000     0.279800000000     0          
H3       H      0.103300000000     0.584400000000     0.300600000000     0          
C2       C      0.427260000000     0.971830000000     0.748800000000     0          
O1       O      0.314930000000     0.827710000000     0.776900000000     0          
C3       C      0.391280000000     0.983220000000     0.746600000000     0          
H1       H      0.371400000000     0.968600000000     0.745400000000     0          
C6       C      0.377900000000     0.865330000000     0.720700000000     0          
H2       H      0.373900000000     0.851900000000     0.700400000000     0          
C7       C      0.403200000000     0.891600000000     0.720200000000     0          
H3       H      0.415600000000     0.896700000000     0.699400000000     0          
C2       C      0.028170000000     0.427260000000     0.748800000000     0          
O1       O      0.172290000000     0.314930000000     0.776900000000     0          
C3       C      0.016780000000     0.391280000000     0.746600000000     0          
H1       H      0.031400000000     0.371400000000     0.745400000000     0          
C6       C      0.134670000000     0.377900000000     0.720700000000     0          
H2       H      0.148100000000     0.373900000000     0.700400000000     0          
C7       C      0.108400000000     0.403200000000     0.720200000000     0          
H3       H      0.103300000000     0.415600000000     0.699400000000     0          
C2       C      0.572740000000     0.028170000000     0.748800000000     0          
O1       O      0.685070000000     0.172290000000     0.776900000000     0          
C3       C      0.608720000000     0.016780000000     0.746600000000     0          
H1       H      0.628600000000     0.031400000000     0.745400000000     0          
C6       C      0.622100000000     0.134670000000     0.720700000000     0          
H2       H      0.626100000000     0.148100000000     0.700400000000     0          
C7       C      0.596800000000     0.108400000000     0.720200000000     0          
H3       H      0.584400000000     0.103300000000     0.699400000000     0          
C2       C      0.971830000000     0.572740000000     0.748800000000     0          
O1       O      0.827710000000     0.685070000000     0.776900000000     0          
C3       C      0.983220000000     0.608720000000     0.746600000000     0          
H1       H      0.968600000000     0.628600000000     0.745400000000     0          
C6       C      0.865330000000     0.622100000000     0.720700000000     0          
H2       H      0.851900000000     0.626100000000     0.700400000000     0          
C7       C      0.891600000000     0.596800000000     0.720200000000     0          
H3       H      0.896700000000     0.584400000000     0.699400000000     0          
C2       C      0.251200000000     0.427260000000     0.028170000000     0          
O1       O      0.223100000000     0.314930000000     0.172290000000     0          
C3       C      0.253400000000     0.391280000000     0.016780000000     0          
H1       H      0.254600000000     0.371400000000     0.031400000000     0          
C6       C      0.279300000000     0.377900000000     0.134670000000     0          
H2       H      0.299600000000     0.373900000000     0.148100000000     0          
C7       C      0.279800000000     0.403200000000     0.108400000000     0          
H3       H      0.300600000000     0.415600000000     0.103300000000     0          
C2       C      0.251200000000     0.572740000000     0.971830000000     0          
O1       O      0.223100000000     0.685070000000     0.827710000000     0          
C3       C      0.253400000000     0.608720000000     0.983220000000     0          
H1       H      0.254600000000     0.628600000000     0.968600000000     0          
C6       C      0.279300000000     0.622100000000     0.865330000000     0          
H2       H      0.299600000000     0.626100000000     0.851900000000     0          
C7       C      0.279800000000     0.596800000000     0.891600000000     0          
H3       H      0.300600000000     0.584400000000     0.896700000000     0          
C2       C      0.427260000000     0.251200000000     0.971830000000     0          
O1       O      0.314930000000     0.223100000000     0.827710000000     0          
C3       C      0.391280000000     0.253400000000     0.983220000000     0          
H1       H      0.371400000000     0.254600000000     0.968600000000     0          
C6       C      0.377900000000     0.279300000000     0.865330000000     0          
H2       H      0.373900000000     0.299600000000     0.851900000000     0          
C7       C      0.403200000000     0.279800000000     0.891600000000     0          
H3       H      0.415600000000     0.300600000000     0.896700000000     0          
C2       C      0.748800000000     0.427260000000     0.971830000000     0          
O1       O      0.776900000000     0.314930000000     0.827710000000     0          
C3       C      0.746600000000     0.391280000000     0.983220000000     0          
H1       H      0.745400000000     0.371400000000     0.968600000000     0          
C6       C      0.720700000000     0.377900000000     0.865330000000     0          
H2       H      0.700400000000     0.373900000000     0.851900000000     0          
C7       C      0.720200000000     0.403200000000     0.891600000000     0          
H3       H      0.699400000000     0.415600000000     0.896700000000     0          
C2       C      0.572740000000     0.748800000000     0.971830000000     0          
O1       O      0.685070000000     0.776900000000     0.827710000000     0          
C3       C      0.608720000000     0.746600000000     0.983220000000     0          
H1       H      0.628600000000     0.745400000000     0.968600000000     0          
C6       C      0.622100000000     0.720700000000     0.865330000000     0          
H2       H      0.626100000000     0.700400000000     0.851900000000     0          
C7       C      0.596800000000     0.720200000000     0.891600000000     0          
H3       H      0.584400000000     0.699400000000     0.896700000000     0          
C2       C      0.748800000000     0.572740000000     0.028170000000     0          
O1       O      0.776900000000     0.685070000000     0.172290000000     0          
C3       C      0.746600000000     0.608720000000     0.016780000000     0          
H1       H      0.745400000000     0.628600000000     0.031400000000     0          
C6       C      0.720700000000     0.622100000000     0.134670000000     0          
H2       H      0.700400000000     0.626100000000     0.148100000000     0          
C7       C      0.720200000000     0.596800000000     0.108400000000     0          
H3       H      0.699400000000     0.584400000000     0.103300000000     0          
C2       C      0.427260000000     0.748800000000     0.028170000000     0          
O1       O      0.314930000000     0.776900000000     0.172290000000     0          
C3       C      0.391280000000     0.746600000000     0.016780000000     0          
H1       H      0.371400000000     0.745400000000     0.031400000000     0          
C6       C      0.377900000000     0.720700000000     0.134670000000     0          
H2       H      0.373900000000     0.700400000000     0.148100000000     0          
C7       C      0.403200000000     0.720200000000     0.108400000000     0          
H3       H      0.415600000000     0.699400000000     0.103300000000     0          
C2       C      0.572740000000     0.251200000000     0.028170000000     0          
O1       O      0.685070000000     0.223100000000     0.172290000000     0          
C3       C      0.608720000000     0.253400000000     0.016780000000     0          
H1       H      0.628600000000     0.254600000000     0.031400000000     0          
C6       C      0.622100000000     0.279300000000     0.134670000000     0          
H2       H      0.626100000000     0.299600000000     0.148100000000     0          
C7       C      0.596800000000     0.279800000000     0.108400000000     0          
H3       H      0.584400000000     0.300600000000     0.103300000000     0          


