data_DODBUV

_audit_creation_method RASPA-1.0
_audit_creation_date 2020-11-2
_audit_author_name 'Rocio Bueno-Perez'

_cell_length_a    16.581
_cell_length_b    16.581
_cell_length_c    78.3
_cell_angle_alpha 90
_cell_angle_beta  90
_cell_angle_gamma 90
_cell_volume      21527

_symmetry_cell_setting          tetragonal
_symmetry_space_group_name_Hall 'P 1'
_symmetry_space_group_name_H-M  'P 1'
_symmetry_Int_Tables_number     1

_symmetry_equiv_pos_as_xyz 'x,y,z'

loop_
_atom_site_label
_atom_site_type_symbol
_atom_site_fract_x
_atom_site_fract_y
_atom_site_fract_z
_atom_site_charge
O1       O      0.343980000000     0.391500000000     0.098810000000     0          
O2       O      0.419130000000     0.328240000000     0.079430000000     0          
C1       C      0.362300000000     0.373000000000     0.083740000000     0          
C2       C      0.312200000000     0.403300000000     0.069550000000     0          
C3       C      0.310800000000     0.361300000000     0.054260000000     0          
H2       H      0.345100000000     0.316000000000     0.052600000000     0          
C4       C      0.258700000000     0.385800000000     0.041390000000     0          
H3       H      0.257900000000     0.357400000000     0.030900000000     0          
C5       C      0.207900000000     0.451400000000     0.043720000000     0          
C6       C      0.211000000000     0.494000000000     0.058990000000     0          
H4       H      0.178000000000     0.540300000000     0.060600000000     0          
C7       C      0.262600000000     0.468700000000     0.072030000000     0          
H5       H      0.263300000000     0.496700000000     0.082600000000     0          
C8       C      0.147500000000     0.471600000000     0.030720000000     0          
C9       C      0.174000000000     0.486100000000     0.013780000000     0          
C10      C      0.254200000000     0.491800000000     0.008400000000     0          
H6       H      0.300500000000     0.485300000000     0.015400000000     0          
C11      C      0.067000000000     0.463500000000     0.035610000000     0          
C12      C      0.039700000000     0.430600000000     0.051480000000     0          
H7       H      0.073200000000     0.411900000000     0.060500000000     0          
Zr1      Zr     0.500000000000     0.250000000000     0.093880000000     0          
Zr2      Zr     0.393480000000     0.356520000000     0.125000000000     0          
O3       O      0.409780000000     0.250000000000     0.111500000000     0          
O4       O      0.500000000000     0.372290000000     0.107790000000     0          
N1       N      0.000000000000     0.479900000000     0.025950000000     0          
H1       H      0.000000000000     0.497900000000     0.015400000000     0          
N2       N      0.124400000000     0.500000000000     0.000000000000     0          
H8?      H      0.071400000000     0.500000000000     0.000000000000     0          
O1       O      0.858500000000     0.093980000000     0.348810000000     0          
O2       O      0.921760000000     0.169130000000     0.329430000000     0          
C1       C      0.877000000000     0.112300000000     0.333740000000     0          
C2       C      0.846700000000     0.062200000000     0.319550000000     0          
C3       C      0.888700000000     0.060800000000     0.304260000000     0          
H2       H      0.934000000000     0.095100000000     0.302600000000     0          
C4       C      0.864200000000     0.008700000000     0.291390000000     0          
H3       H      0.892600000000     0.007900000000     0.280900000000     0          
C5       C      0.798600000000     0.957900000000     0.293720000000     0          
C6       C      0.756000000000     0.961000000000     0.308990000000     0          
H4       H      0.709700000000     0.928000000000     0.310600000000     0          
C7       C      0.781300000000     0.012600000000     0.322030000000     0          
H5       H      0.753300000000     0.013300000000     0.332600000000     0          
C8       C      0.778400000000     0.897500000000     0.280720000000     0          
C9       C      0.763900000000     0.924000000000     0.263780000000     0          
C10      C      0.758200000000     0.004200000000     0.258400000000     0          
H6       H      0.764700000000     0.050500000000     0.265400000000     0          
C11      C      0.786500000000     0.817000000000     0.285610000000     0          
C12      C      0.819400000000     0.789700000000     0.301480000000     0          
H7       H      0.838100000000     0.823200000000     0.310500000000     0          
Zr1      Zr     0.000000000000     0.250000000000     0.343880000000     0          
Zr2      Zr     0.893480000000     0.143480000000     0.375000000000     0          
O3       O      0.000000000000     0.159780000000     0.361500000000     0          
O4       O      0.877710000000     0.250000000000     0.357790000000     0          
N1       N      0.770100000000     0.750000000000     0.275950000000     0          
H1       H      0.752100000000     0.750000000000     0.265400000000     0          
N2       N      0.750000000000     0.874400000000     0.250000000000     0          
H8?      H      0.750000000000     0.821400000000     0.250000000000     0          
O1       O      0.156020000000     0.608500000000     0.598810000000     0          
O2       O      0.080870000000     0.671760000000     0.579430000000     0          
C1       C      0.137700000000     0.627000000000     0.583740000000     0          
C2       C      0.187800000000     0.596700000000     0.569550000000     0          
C3       C      0.189200000000     0.638700000000     0.554260000000     0          
H2       H      0.154900000000     0.684000000000     0.552600000000     0          
C4       C      0.241300000000     0.614200000000     0.541390000000     0          
H3       H      0.242100000000     0.642600000000     0.530900000000     0          
C5       C      0.292100000000     0.548600000000     0.543720000000     0          
C6       C      0.289000000000     0.506000000000     0.558990000000     0          
H4       H      0.322000000000     0.459700000000     0.560600000000     0          
C7       C      0.237400000000     0.531300000000     0.572030000000     0          
H5       H      0.236700000000     0.503300000000     0.582600000000     0          
C8       C      0.352500000000     0.528400000000     0.530720000000     0          
C9       C      0.326000000000     0.513900000000     0.513780000000     0          
C10      C      0.245800000000     0.508200000000     0.508400000000     0          
H6       H      0.199500000000     0.514700000000     0.515400000000     0          
C11      C      0.433000000000     0.536500000000     0.535610000000     0          
C12      C      0.460300000000     0.569400000000     0.551480000000     0          
H7       H      0.426800000000     0.588100000000     0.560500000000     0          
Zr1      Zr     0.000000000000     0.750000000000     0.593880000000     0          
Zr2      Zr     0.106520000000     0.643480000000     0.625000000000     0          
O3       O      0.090220000000     0.750000000000     0.611500000000     0          
O4       O      0.000000000000     0.627710000000     0.607790000000     0          
N1       N      0.500000000000     0.520100000000     0.525950000000     0          
H1       H      0.500000000000     0.502100000000     0.515400000000     0          
N2       N      0.375600000000     0.500000000000     0.500000000000     0          
H8?      H      0.428600000000     0.500000000000     0.500000000000     0          
O1       O      0.641500000000     0.906020000000     0.848810000000     0          
O2       O      0.578240000000     0.830870000000     0.829430000000     0          
C1       C      0.623000000000     0.887700000000     0.833740000000     0          
C2       C      0.653300000000     0.937800000000     0.819550000000     0          
C3       C      0.611300000000     0.939200000000     0.804260000000     0          
H2       H      0.566000000000     0.904900000000     0.802600000000     0          
C4       C      0.635800000000     0.991300000000     0.791390000000     0          
H3       H      0.607400000000     0.992100000000     0.780900000000     0          
C5       C      0.701400000000     0.042100000000     0.793720000000     0          
C6       C      0.744000000000     0.039000000000     0.808990000000     0          
H4       H      0.790300000000     0.072000000000     0.810600000000     0          
C7       C      0.718700000000     0.987400000000     0.822030000000     0          
H5       H      0.746700000000     0.986700000000     0.832600000000     0          
C8       C      0.721600000000     0.102500000000     0.780720000000     0          
C9       C      0.736100000000     0.076000000000     0.763780000000     0          
C10      C      0.741800000000     0.995800000000     0.758400000000     0          
H6       H      0.735300000000     0.949500000000     0.765400000000     0          
C11      C      0.713500000000     0.183000000000     0.785610000000     0          
C12      C      0.680600000000     0.210300000000     0.801480000000     0          
H7       H      0.661900000000     0.176800000000     0.810500000000     0          
Zr1      Zr     0.500000000000     0.750000000000     0.843880000000     0          
Zr2      Zr     0.606520000000     0.856520000000     0.875000000000     0          
O3       O      0.500000000000     0.840220000000     0.861500000000     0          
O4       O      0.622290000000     0.750000000000     0.857790000000     0          
N1       N      0.729900000000     0.250000000000     0.775950000000     0          
H1       H      0.747900000000     0.250000000000     0.765400000000     0          
N2       N      0.750000000000     0.125600000000     0.750000000000     0          
H8?      H      0.750000000000     0.178600000000     0.750000000000     0          
O1       O      0.343980000000     0.608500000000     0.901190000000     0          
O2       O      0.419130000000     0.671760000000     0.920570000000     0          
C1       C      0.362300000000     0.627000000000     0.916260000000     0          
C2       C      0.312200000000     0.596700000000     0.930450000000     0          
C3       C      0.310800000000     0.638700000000     0.945740000000     0          
H2       H      0.345100000000     0.684000000000     0.947400000000     0          
C4       C      0.258700000000     0.614200000000     0.958610000000     0          
H3       H      0.257900000000     0.642600000000     0.969100000000     0          
C5       C      0.207900000000     0.548600000000     0.956280000000     0          
C6       C      0.211000000000     0.506000000000     0.941010000000     0          
H4       H      0.178000000000     0.459700000000     0.939400000000     0          
C7       C      0.262600000000     0.531300000000     0.927970000000     0          
H5       H      0.263300000000     0.503300000000     0.917400000000     0          
C8       C      0.147500000000     0.528400000000     0.969280000000     0          
C9       C      0.174000000000     0.513900000000     0.986220000000     0          
C10      C      0.254200000000     0.508200000000     0.991600000000     0          
H6       H      0.300500000000     0.514700000000     0.984600000000     0          
C11      C      0.067000000000     0.536500000000     0.964390000000     0          
C12      C      0.039700000000     0.569400000000     0.948520000000     0          
H7       H      0.073200000000     0.588100000000     0.939500000000     0          
Zr1      Zr     0.500000000000     0.750000000000     0.906120000000     0          
Zr2      Zr     0.393480000000     0.643480000000     0.875000000000     0          
O3       O      0.409780000000     0.750000000000     0.888500000000     0          
O4       O      0.500000000000     0.627710000000     0.892210000000     0          
N1       N      0.000000000000     0.520100000000     0.974050000000     0          
H1       H      0.000000000000     0.502100000000     0.984600000000     0          
O1       O      0.641500000000     0.093980000000     0.151190000000     0          
O2       O      0.578240000000     0.169130000000     0.170570000000     0          
C1       C      0.623000000000     0.112300000000     0.166260000000     0          
C2       C      0.653300000000     0.062200000000     0.180450000000     0          
C3       C      0.611300000000     0.060800000000     0.195740000000     0          
H2       H      0.566000000000     0.095100000000     0.197400000000     0          
C4       C      0.635800000000     0.008700000000     0.208610000000     0          
H3       H      0.607400000000     0.007900000000     0.219100000000     0          
C5       C      0.701400000000     0.957900000000     0.206280000000     0          
C6       C      0.744000000000     0.961000000000     0.191010000000     0          
H4       H      0.790300000000     0.928000000000     0.189400000000     0          
C7       C      0.718700000000     0.012600000000     0.177970000000     0          
H5       H      0.746700000000     0.013300000000     0.167400000000     0          
C8       C      0.721600000000     0.897500000000     0.219280000000     0          
C9       C      0.736100000000     0.924000000000     0.236220000000     0          
C10      C      0.741800000000     0.004200000000     0.241600000000     0          
H6       H      0.735300000000     0.050500000000     0.234600000000     0          
C11      C      0.713500000000     0.817000000000     0.214390000000     0          
C12      C      0.680600000000     0.789700000000     0.198520000000     0          
H7       H      0.661900000000     0.823200000000     0.189500000000     0          
Zr1      Zr     0.500000000000     0.250000000000     0.156120000000     0          
Zr2      Zr     0.606520000000     0.143480000000     0.125000000000     0          
O3       O      0.500000000000     0.159780000000     0.138500000000     0          
O4       O      0.622290000000     0.250000000000     0.142210000000     0          
N1       N      0.729900000000     0.750000000000     0.224050000000     0          
H1       H      0.747900000000     0.750000000000     0.234600000000     0          
O1       O      0.156020000000     0.391500000000     0.401190000000     0          
O2       O      0.080870000000     0.328240000000     0.420570000000     0          
C1       C      0.137700000000     0.373000000000     0.416260000000     0          
C2       C      0.187800000000     0.403300000000     0.430450000000     0          
C3       C      0.189200000000     0.361300000000     0.445740000000     0          
H2       H      0.154900000000     0.316000000000     0.447400000000     0          
C4       C      0.241300000000     0.385800000000     0.458610000000     0          
H3       H      0.242100000000     0.357400000000     0.469100000000     0          
C5       C      0.292100000000     0.451400000000     0.456280000000     0          
C6       C      0.289000000000     0.494000000000     0.441010000000     0          
H4       H      0.322000000000     0.540300000000     0.439400000000     0          
C7       C      0.237400000000     0.468700000000     0.427970000000     0          
H5       H      0.236700000000     0.496700000000     0.417400000000     0          
C8       C      0.352500000000     0.471600000000     0.469280000000     0          
C9       C      0.326000000000     0.486100000000     0.486220000000     0          
C10      C      0.245800000000     0.491800000000     0.491600000000     0          
H6       H      0.199500000000     0.485300000000     0.484600000000     0          
C11      C      0.433000000000     0.463500000000     0.464390000000     0          
C12      C      0.460300000000     0.430600000000     0.448520000000     0          
H7       H      0.426800000000     0.411900000000     0.439500000000     0          
Zr1      Zr     0.000000000000     0.250000000000     0.406120000000     0          
Zr2      Zr     0.106520000000     0.356520000000     0.375000000000     0          
O3       O      0.090220000000     0.250000000000     0.388500000000     0          
O4       O      0.000000000000     0.372290000000     0.392210000000     0          
N1       N      0.500000000000     0.479900000000     0.474050000000     0          
H1       H      0.500000000000     0.497900000000     0.484600000000     0          
O1       O      0.858500000000     0.906020000000     0.651190000000     0          
O2       O      0.921760000000     0.830870000000     0.670570000000     0          
C1       C      0.877000000000     0.887700000000     0.666260000000     0          
C2       C      0.846700000000     0.937800000000     0.680450000000     0          
C3       C      0.888700000000     0.939200000000     0.695740000000     0          
H2       H      0.934000000000     0.904900000000     0.697400000000     0          
C4       C      0.864200000000     0.991300000000     0.708610000000     0          
H3       H      0.892600000000     0.992100000000     0.719100000000     0          
C5       C      0.798600000000     0.042100000000     0.706280000000     0          
C6       C      0.756000000000     0.039000000000     0.691010000000     0          
H4       H      0.709700000000     0.072000000000     0.689400000000     0          
C7       C      0.781300000000     0.987400000000     0.677970000000     0          
H5       H      0.753300000000     0.986700000000     0.667400000000     0          
C8       C      0.778400000000     0.102500000000     0.719280000000     0          
C9       C      0.763900000000     0.076000000000     0.736220000000     0          
C10      C      0.758200000000     0.995800000000     0.741600000000     0          
H6       H      0.764700000000     0.949500000000     0.734600000000     0          
C11      C      0.786500000000     0.183000000000     0.714390000000     0          
C12      C      0.819400000000     0.210300000000     0.698520000000     0          
H7       H      0.838100000000     0.176800000000     0.689500000000     0          
Zr1      Zr     0.000000000000     0.750000000000     0.656120000000     0          
Zr2      Zr     0.893480000000     0.856520000000     0.625000000000     0          
O3       O      0.000000000000     0.840220000000     0.638500000000     0          
O4       O      0.877710000000     0.750000000000     0.642210000000     0          
N1       N      0.770100000000     0.250000000000     0.724050000000     0          
H1       H      0.752100000000     0.250000000000     0.734600000000     0          
O1       O      0.656020000000     0.608500000000     0.901190000000     0          
O2       O      0.580870000000     0.671760000000     0.920570000000     0          
C1       C      0.637700000000     0.627000000000     0.916260000000     0          
C2       C      0.687800000000     0.596700000000     0.930450000000     0          
C3       C      0.689200000000     0.638700000000     0.945740000000     0          
H2       H      0.654900000000     0.684000000000     0.947400000000     0          
C4       C      0.741300000000     0.614200000000     0.958610000000     0          
H3       H      0.742100000000     0.642600000000     0.969100000000     0          
C5       C      0.792100000000     0.548600000000     0.956280000000     0          
C6       C      0.789000000000     0.506000000000     0.941010000000     0          
H4       H      0.822000000000     0.459700000000     0.939400000000     0          
C7       C      0.737400000000     0.531300000000     0.927970000000     0          
H5       H      0.736700000000     0.503300000000     0.917400000000     0          
C8       C      0.852500000000     0.528400000000     0.969280000000     0          
C9       C      0.826000000000     0.513900000000     0.986220000000     0          
C10      C      0.745800000000     0.508200000000     0.991600000000     0          
H6       H      0.699500000000     0.514700000000     0.984600000000     0          
C11      C      0.933000000000     0.536500000000     0.964390000000     0          
C12      C      0.960300000000     0.569400000000     0.948520000000     0          
H7       H      0.926800000000     0.588100000000     0.939500000000     0          
Zr2      Zr     0.606520000000     0.643480000000     0.875000000000     0          
O3       O      0.590220000000     0.750000000000     0.888500000000     0          
N2       N      0.875600000000     0.500000000000     0.000000000000     0          
H8?      H      0.928600000000     0.500000000000     0.000000000000     0          
O1       O      0.141500000000     0.906020000000     0.651190000000     0          
O2       O      0.078240000000     0.830870000000     0.670570000000     0          
C1       C      0.123000000000     0.887700000000     0.666260000000     0          
C2       C      0.153300000000     0.937800000000     0.680450000000     0          
C3       C      0.111300000000     0.939200000000     0.695740000000     0          
H2       H      0.066000000000     0.904900000000     0.697400000000     0          
C4       C      0.135800000000     0.991300000000     0.708610000000     0          
H3       H      0.107400000000     0.992100000000     0.719100000000     0          
C5       C      0.201400000000     0.042100000000     0.706280000000     0          
C6       C      0.244000000000     0.039000000000     0.691010000000     0          
H4       H      0.290300000000     0.072000000000     0.689400000000     0          
C7       C      0.218700000000     0.987400000000     0.677970000000     0          
H5       H      0.246700000000     0.986700000000     0.667400000000     0          
C8       C      0.221600000000     0.102500000000     0.719280000000     0          
C9       C      0.236100000000     0.076000000000     0.736220000000     0          
C10      C      0.241800000000     0.995800000000     0.741600000000     0          
H6       H      0.235300000000     0.949500000000     0.734600000000     0          
C11      C      0.213500000000     0.183000000000     0.714390000000     0          
C12      C      0.180600000000     0.210300000000     0.698520000000     0          
H7       H      0.161900000000     0.176800000000     0.689500000000     0          
Zr2      Zr     0.106520000000     0.856520000000     0.625000000000     0          
O4       O      0.122290000000     0.750000000000     0.642210000000     0          
N1       N      0.229900000000     0.250000000000     0.724050000000     0          
H1       H      0.247900000000     0.250000000000     0.734600000000     0          
N2       N      0.250000000000     0.125600000000     0.750000000000     0          
H8?      H      0.250000000000     0.178600000000     0.750000000000     0          
O1       O      0.843980000000     0.391500000000     0.401190000000     0          
O2       O      0.919130000000     0.328240000000     0.420570000000     0          
C1       C      0.862300000000     0.373000000000     0.416260000000     0          
C2       C      0.812200000000     0.403300000000     0.430450000000     0          
C3       C      0.810800000000     0.361300000000     0.445740000000     0          
H2       H      0.845100000000     0.316000000000     0.447400000000     0          
C4       C      0.758700000000     0.385800000000     0.458610000000     0          
H3       H      0.757900000000     0.357400000000     0.469100000000     0          
C5       C      0.707900000000     0.451400000000     0.456280000000     0          
C6       C      0.711000000000     0.494000000000     0.441010000000     0          
H4       H      0.678000000000     0.540300000000     0.439400000000     0          
C7       C      0.762600000000     0.468700000000     0.427970000000     0          
H5       H      0.763300000000     0.496700000000     0.417400000000     0          
C8       C      0.647500000000     0.471600000000     0.469280000000     0          
C9       C      0.674000000000     0.486100000000     0.486220000000     0          
C10      C      0.754200000000     0.491800000000     0.491600000000     0          
H6       H      0.800500000000     0.485300000000     0.484600000000     0          
C11      C      0.567000000000     0.463500000000     0.464390000000     0          
C12      C      0.539700000000     0.430600000000     0.448520000000     0          
H7       H      0.573200000000     0.411900000000     0.439500000000     0          
Zr2      Zr     0.893480000000     0.356520000000     0.375000000000     0          
O3       O      0.909780000000     0.250000000000     0.388500000000     0          
N2       N      0.624400000000     0.500000000000     0.500000000000     0          
H8?      H      0.571400000000     0.500000000000     0.500000000000     0          
O1       O      0.358500000000     0.093980000000     0.151190000000     0          
O2       O      0.421760000000     0.169130000000     0.170570000000     0          
C1       C      0.377000000000     0.112300000000     0.166260000000     0          
C2       C      0.346700000000     0.062200000000     0.180450000000     0          
C3       C      0.388700000000     0.060800000000     0.195740000000     0          
H2       H      0.434000000000     0.095100000000     0.197400000000     0          
C4       C      0.364200000000     0.008700000000     0.208610000000     0          
H3       H      0.392600000000     0.007900000000     0.219100000000     0          
C5       C      0.298600000000     0.957900000000     0.206280000000     0          
C6       C      0.256000000000     0.961000000000     0.191010000000     0          
H4       H      0.209700000000     0.928000000000     0.189400000000     0          
C7       C      0.281300000000     0.012600000000     0.177970000000     0          
H5       H      0.253300000000     0.013300000000     0.167400000000     0          
C8       C      0.278400000000     0.897500000000     0.219280000000     0          
C9       C      0.263900000000     0.924000000000     0.236220000000     0          
C10      C      0.258200000000     0.004200000000     0.241600000000     0          
H6       H      0.264700000000     0.050500000000     0.234600000000     0          
C11      C      0.286500000000     0.817000000000     0.214390000000     0          
C12      C      0.319400000000     0.789700000000     0.198520000000     0          
H7       H      0.338100000000     0.823200000000     0.189500000000     0          
Zr2      Zr     0.393480000000     0.143480000000     0.125000000000     0          
O4       O      0.377710000000     0.250000000000     0.142210000000     0          
N1       N      0.270100000000     0.750000000000     0.224050000000     0          
H1       H      0.252100000000     0.750000000000     0.234600000000     0          
N2       N      0.250000000000     0.874400000000     0.250000000000     0          
H8?      H      0.250000000000     0.821400000000     0.250000000000     0          
O1       O      0.656020000000     0.391500000000     0.098810000000     0          
O2       O      0.580870000000     0.328240000000     0.079430000000     0          
C1       C      0.637700000000     0.373000000000     0.083740000000     0          
C2       C      0.687800000000     0.403300000000     0.069550000000     0          
C3       C      0.689200000000     0.361300000000     0.054260000000     0          
H2       H      0.654900000000     0.316000000000     0.052600000000     0          
C4       C      0.741300000000     0.385800000000     0.041390000000     0          
H3       H      0.742100000000     0.357400000000     0.030900000000     0          
C5       C      0.792100000000     0.451400000000     0.043720000000     0          
C6       C      0.789000000000     0.494000000000     0.058990000000     0          
H4       H      0.822000000000     0.540300000000     0.060600000000     0          
C7       C      0.737400000000     0.468700000000     0.072030000000     0          
H5       H      0.736700000000     0.496700000000     0.082600000000     0          
C8       C      0.852500000000     0.471600000000     0.030720000000     0          
C9       C      0.826000000000     0.486100000000     0.013780000000     0          
C10      C      0.745800000000     0.491800000000     0.008400000000     0          
H6       H      0.699500000000     0.485300000000     0.015400000000     0          
C11      C      0.933000000000     0.463500000000     0.035610000000     0          
C12      C      0.960300000000     0.430600000000     0.051480000000     0          
H7       H      0.926800000000     0.411900000000     0.060500000000     0          
Zr2      Zr     0.606520000000     0.356520000000     0.125000000000     0          
O3       O      0.590220000000     0.250000000000     0.111500000000     0          
O1       O      0.358500000000     0.906020000000     0.848810000000     0          
O2       O      0.421760000000     0.830870000000     0.829430000000     0          
C1       C      0.377000000000     0.887700000000     0.833740000000     0          
C2       C      0.346700000000     0.937800000000     0.819550000000     0          
C3       C      0.388700000000     0.939200000000     0.804260000000     0          
H2       H      0.434000000000     0.904900000000     0.802600000000     0          
C4       C      0.364200000000     0.991300000000     0.791390000000     0          
H3       H      0.392600000000     0.992100000000     0.780900000000     0          
C5       C      0.298600000000     0.042100000000     0.793720000000     0          
C6       C      0.256000000000     0.039000000000     0.808990000000     0          
H4       H      0.209700000000     0.072000000000     0.810600000000     0          
C7       C      0.281300000000     0.987400000000     0.822030000000     0          
H5       H      0.253300000000     0.986700000000     0.832600000000     0          
C8       C      0.278400000000     0.102500000000     0.780720000000     0          
C9       C      0.263900000000     0.076000000000     0.763780000000     0          
C10      C      0.258200000000     0.995800000000     0.758400000000     0          
H6       H      0.264700000000     0.949500000000     0.765400000000     0          
C11      C      0.286500000000     0.183000000000     0.785610000000     0          
C12      C      0.319400000000     0.210300000000     0.801480000000     0          
H7       H      0.338100000000     0.176800000000     0.810500000000     0          
Zr2      Zr     0.393480000000     0.856520000000     0.875000000000     0          
O4       O      0.377710000000     0.750000000000     0.857790000000     0          
N1       N      0.270100000000     0.250000000000     0.775950000000     0          
H1       H      0.252100000000     0.250000000000     0.765400000000     0          
O1       O      0.843980000000     0.608500000000     0.598810000000     0          
O2       O      0.919130000000     0.671760000000     0.579430000000     0          
C1       C      0.862300000000     0.627000000000     0.583740000000     0          
C2       C      0.812200000000     0.596700000000     0.569550000000     0          
C3       C      0.810800000000     0.638700000000     0.554260000000     0          
H2       H      0.845100000000     0.684000000000     0.552600000000     0          
C4       C      0.758700000000     0.614200000000     0.541390000000     0          
H3       H      0.757900000000     0.642600000000     0.530900000000     0          
C5       C      0.707900000000     0.548600000000     0.543720000000     0          
C6       C      0.711000000000     0.506000000000     0.558990000000     0          
H4       H      0.678000000000     0.459700000000     0.560600000000     0          
C7       C      0.762600000000     0.531300000000     0.572030000000     0          
H5       H      0.763300000000     0.503300000000     0.582600000000     0          
C8       C      0.647500000000     0.528400000000     0.530720000000     0          
C9       C      0.674000000000     0.513900000000     0.513780000000     0          
C10      C      0.754200000000     0.508200000000     0.508400000000     0          
H6       H      0.800500000000     0.514700000000     0.515400000000     0          
C11      C      0.567000000000     0.536500000000     0.535610000000     0          
C12      C      0.539700000000     0.569400000000     0.551480000000     0          
H7       H      0.573200000000     0.588100000000     0.560500000000     0          
Zr2      Zr     0.893480000000     0.643480000000     0.625000000000     0          
O3       O      0.909780000000     0.750000000000     0.611500000000     0          
O1       O      0.141500000000     0.093980000000     0.348810000000     0          
O2       O      0.078240000000     0.169130000000     0.329430000000     0          
C1       C      0.123000000000     0.112300000000     0.333740000000     0          
C2       C      0.153300000000     0.062200000000     0.319550000000     0          
C3       C      0.111300000000     0.060800000000     0.304260000000     0          
H2       H      0.066000000000     0.095100000000     0.302600000000     0          
C4       C      0.135800000000     0.008700000000     0.291390000000     0          
H3       H      0.107400000000     0.007900000000     0.280900000000     0          
C5       C      0.201400000000     0.957900000000     0.293720000000     0          
C6       C      0.244000000000     0.961000000000     0.308990000000     0          
H4       H      0.290300000000     0.928000000000     0.310600000000     0          
C7       C      0.218700000000     0.012600000000     0.322030000000     0          
H5       H      0.246700000000     0.013300000000     0.332600000000     0          
C8       C      0.221600000000     0.897500000000     0.280720000000     0          
C9       C      0.236100000000     0.924000000000     0.263780000000     0          
C10      C      0.241800000000     0.004200000000     0.258400000000     0          
H6       H      0.235300000000     0.050500000000     0.265400000000     0          
C11      C      0.213500000000     0.817000000000     0.285610000000     0          
C12      C      0.180600000000     0.789700000000     0.301480000000     0          
H7       H      0.161900000000     0.823200000000     0.310500000000     0          
Zr2      Zr     0.106520000000     0.143480000000     0.375000000000     0          
O4       O      0.122290000000     0.250000000000     0.357790000000     0          
N1       N      0.229900000000     0.750000000000     0.275950000000     0          
H1       H      0.247900000000     0.750000000000     0.265400000000     0          
O1       O      0.843980000000     0.891500000000     0.598810000000     0          
O2       O      0.919130000000     0.828240000000     0.579430000000     0          
C1       C      0.862300000000     0.873000000000     0.583740000000     0          
C2       C      0.812200000000     0.903300000000     0.569550000000     0          
C3       C      0.810800000000     0.861300000000     0.554260000000     0          
H2       H      0.845100000000     0.816000000000     0.552600000000     0          
C4       C      0.758700000000     0.885800000000     0.541390000000     0          
H3       H      0.757900000000     0.857400000000     0.530900000000     0          
C5       C      0.707900000000     0.951400000000     0.543720000000     0          
C6       C      0.711000000000     0.994000000000     0.558990000000     0          
H4       H      0.678000000000     0.040300000000     0.560600000000     0          
C7       C      0.762600000000     0.968700000000     0.572030000000     0          
H5       H      0.763300000000     0.996700000000     0.582600000000     0          
C8       C      0.647500000000     0.971600000000     0.530720000000     0          
C9       C      0.674000000000     0.986100000000     0.513780000000     0          
C10      C      0.754200000000     0.991800000000     0.508400000000     0          
H6       H      0.800500000000     0.985300000000     0.515400000000     0          
C11      C      0.567000000000     0.963500000000     0.535610000000     0          
C12      C      0.539700000000     0.930600000000     0.551480000000     0          
H7       H      0.573200000000     0.911900000000     0.560500000000     0          
O4       O      0.000000000000     0.872290000000     0.607790000000     0          
N1       N      0.500000000000     0.979900000000     0.525950000000     0          
H1       H      0.500000000000     0.997900000000     0.515400000000     0          
N2       N      0.624400000000     0.000000000000     0.500000000000     0          
H8?      H      0.571400000000     0.000000000000     0.500000000000     0          
O1       O      0.358500000000     0.593980000000     0.848810000000     0          
O2       O      0.421760000000     0.669130000000     0.829430000000     0          
C1       C      0.377000000000     0.612300000000     0.833740000000     0          
C2       C      0.346700000000     0.562200000000     0.819550000000     0          
C3       C      0.388700000000     0.560800000000     0.804260000000     0          
H2       H      0.434000000000     0.595100000000     0.802600000000     0          
C4       C      0.364200000000     0.508700000000     0.791390000000     0          
H3       H      0.392600000000     0.507900000000     0.780900000000     0          
C5       C      0.298600000000     0.457900000000     0.793720000000     0          
C6       C      0.256000000000     0.461000000000     0.808990000000     0          
H4       H      0.209700000000     0.428000000000     0.810600000000     0          
C7       C      0.281300000000     0.512600000000     0.822030000000     0          
H5       H      0.253300000000     0.513300000000     0.832600000000     0          
C8       C      0.278400000000     0.397500000000     0.780720000000     0          
C9       C      0.263900000000     0.424000000000     0.763780000000     0          
C10      C      0.258200000000     0.504200000000     0.758400000000     0          
H6       H      0.264700000000     0.550500000000     0.765400000000     0          
C11      C      0.286500000000     0.317000000000     0.785610000000     0          
C12      C      0.319400000000     0.289700000000     0.801480000000     0          
H7       H      0.338100000000     0.323200000000     0.810500000000     0          
O3       O      0.500000000000     0.659780000000     0.861500000000     0          
N2       N      0.250000000000     0.374400000000     0.750000000000     0          
H8?      H      0.250000000000     0.321400000000     0.750000000000     0          
O1       O      0.656020000000     0.108500000000     0.098810000000     0          
O2       O      0.580870000000     0.171760000000     0.079430000000     0          
C1       C      0.637700000000     0.127000000000     0.083740000000     0          
C2       C      0.687800000000     0.096700000000     0.069550000000     0          
C3       C      0.689200000000     0.138700000000     0.054260000000     0          
H2       H      0.654900000000     0.184000000000     0.052600000000     0          
C4       C      0.741300000000     0.114200000000     0.041390000000     0          
H3       H      0.742100000000     0.142600000000     0.030900000000     0          
C5       C      0.792100000000     0.048600000000     0.043720000000     0          
C6       C      0.789000000000     0.006000000000     0.058990000000     0          
H4       H      0.822000000000     0.959700000000     0.060600000000     0          
C7       C      0.737400000000     0.031300000000     0.072030000000     0          
H5       H      0.736700000000     0.003300000000     0.082600000000     0          
C8       C      0.852500000000     0.028400000000     0.030720000000     0          
C9       C      0.826000000000     0.013900000000     0.013780000000     0          
C10      C      0.745800000000     0.008200000000     0.008400000000     0          
H6       H      0.699500000000     0.014700000000     0.015400000000     0          
C11      C      0.933000000000     0.036500000000     0.035610000000     0          
C12      C      0.960300000000     0.069400000000     0.051480000000     0          
H7       H      0.926800000000     0.088100000000     0.060500000000     0          
O4       O      0.500000000000     0.127710000000     0.107790000000     0          
N1       N      0.000000000000     0.020100000000     0.025950000000     0          
H1       H      0.000000000000     0.002100000000     0.015400000000     0          
N2       N      0.875600000000     0.000000000000     0.000000000000     0          
H8?      H      0.928600000000     0.000000000000     0.000000000000     0          
O1       O      0.141500000000     0.406020000000     0.348810000000     0          
O2       O      0.078240000000     0.330870000000     0.329430000000     0          
C1       C      0.123000000000     0.387700000000     0.333740000000     0          
C2       C      0.153300000000     0.437800000000     0.319550000000     0          
C3       C      0.111300000000     0.439200000000     0.304260000000     0          
H2       H      0.066000000000     0.404900000000     0.302600000000     0          
C4       C      0.135800000000     0.491300000000     0.291390000000     0          
H3       H      0.107400000000     0.492100000000     0.280900000000     0          
C5       C      0.201400000000     0.542100000000     0.293720000000     0          
C6       C      0.244000000000     0.539000000000     0.308990000000     0          
H4       H      0.290300000000     0.572000000000     0.310600000000     0          
C7       C      0.218700000000     0.487400000000     0.322030000000     0          
H5       H      0.246700000000     0.486700000000     0.332600000000     0          
C8       C      0.221600000000     0.602500000000     0.280720000000     0          
C9       C      0.236100000000     0.576000000000     0.263780000000     0          
C10      C      0.241800000000     0.495800000000     0.258400000000     0          
H6       H      0.235300000000     0.449500000000     0.265400000000     0          
C11      C      0.213500000000     0.683000000000     0.285610000000     0          
C12      C      0.180600000000     0.710300000000     0.301480000000     0          
H7       H      0.161900000000     0.676800000000     0.310500000000     0          
O3       O      0.000000000000     0.340220000000     0.361500000000     0          
N2       N      0.250000000000     0.625600000000     0.250000000000     0          
H8?      H      0.250000000000     0.678600000000     0.250000000000     0          
O1       O      0.843980000000     0.108500000000     0.401190000000     0          
O2       O      0.919130000000     0.171760000000     0.420570000000     0          
C1       C      0.862300000000     0.127000000000     0.416260000000     0          
C2       C      0.812200000000     0.096700000000     0.430450000000     0          
C3       C      0.810800000000     0.138700000000     0.445740000000     0          
H2       H      0.845100000000     0.184000000000     0.447400000000     0          
C4       C      0.758700000000     0.114200000000     0.458610000000     0          
H3       H      0.757900000000     0.142600000000     0.469100000000     0          
C5       C      0.707900000000     0.048600000000     0.456280000000     0          
C6       C      0.711000000000     0.006000000000     0.441010000000     0          
H4       H      0.678000000000     0.959700000000     0.439400000000     0          
C7       C      0.762600000000     0.031300000000     0.427970000000     0          
H5       H      0.763300000000     0.003300000000     0.417400000000     0          
C8       C      0.647500000000     0.028400000000     0.469280000000     0          
C9       C      0.674000000000     0.013900000000     0.486220000000     0          
C10      C      0.754200000000     0.008200000000     0.491600000000     0          
H6       H      0.800500000000     0.014700000000     0.484600000000     0          
C11      C      0.567000000000     0.036500000000     0.464390000000     0          
C12      C      0.539700000000     0.069400000000     0.448520000000     0          
H7       H      0.573200000000     0.088100000000     0.439500000000     0          
O4       O      0.000000000000     0.127710000000     0.392210000000     0          
N1       N      0.500000000000     0.020100000000     0.474050000000     0          
H1       H      0.500000000000     0.002100000000     0.484600000000     0          
O1       O      0.141500000000     0.593980000000     0.651190000000     0          
O2       O      0.078240000000     0.669130000000     0.670570000000     0          
C1       C      0.123000000000     0.612300000000     0.666260000000     0          
C2       C      0.153300000000     0.562200000000     0.680450000000     0          
C3       C      0.111300000000     0.560800000000     0.695740000000     0          
H2       H      0.066000000000     0.595100000000     0.697400000000     0          
C4       C      0.135800000000     0.508700000000     0.708610000000     0          
H3       H      0.107400000000     0.507900000000     0.719100000000     0          
C5       C      0.201400000000     0.457900000000     0.706280000000     0          
C6       C      0.244000000000     0.461000000000     0.691010000000     0          
H4       H      0.290300000000     0.428000000000     0.689400000000     0          
C7       C      0.218700000000     0.512600000000     0.677970000000     0          
H5       H      0.246700000000     0.513300000000     0.667400000000     0          
C8       C      0.221600000000     0.397500000000     0.719280000000     0          
C9       C      0.236100000000     0.424000000000     0.736220000000     0          
C10      C      0.241800000000     0.504200000000     0.741600000000     0          
H6       H      0.235300000000     0.550500000000     0.734600000000     0          
C11      C      0.213500000000     0.317000000000     0.714390000000     0          
C12      C      0.180600000000     0.289700000000     0.698520000000     0          
H7       H      0.161900000000     0.323200000000     0.689500000000     0          
O3       O      0.000000000000     0.659780000000     0.638500000000     0          
O1       O      0.656020000000     0.891500000000     0.901190000000     0          
O2       O      0.580870000000     0.828240000000     0.920570000000     0          
C1       C      0.637700000000     0.873000000000     0.916260000000     0          
C2       C      0.687800000000     0.903300000000     0.930450000000     0          
C3       C      0.689200000000     0.861300000000     0.945740000000     0          
H2       H      0.654900000000     0.816000000000     0.947400000000     0          
C4       C      0.741300000000     0.885800000000     0.958610000000     0          
H3       H      0.742100000000     0.857400000000     0.969100000000     0          
C5       C      0.792100000000     0.951400000000     0.956280000000     0          
C6       C      0.789000000000     0.994000000000     0.941010000000     0          
H4       H      0.822000000000     0.040300000000     0.939400000000     0          
C7       C      0.737400000000     0.968700000000     0.927970000000     0          
H5       H      0.736700000000     0.996700000000     0.917400000000     0          
C8       C      0.852500000000     0.971600000000     0.969280000000     0          
C9       C      0.826000000000     0.986100000000     0.986220000000     0          
C10      C      0.745800000000     0.991800000000     0.991600000000     0          
H6       H      0.699500000000     0.985300000000     0.984600000000     0          
C11      C      0.933000000000     0.963500000000     0.964390000000     0          
C12      C      0.960300000000     0.930600000000     0.948520000000     0          
H7       H      0.926800000000     0.911900000000     0.939500000000     0          
O4       O      0.500000000000     0.872290000000     0.892210000000     0          
N1       N      0.000000000000     0.979900000000     0.974050000000     0          
H1       H      0.000000000000     0.997900000000     0.984600000000     0          
O1       O      0.358500000000     0.406020000000     0.151190000000     0          
O2       O      0.421760000000     0.330870000000     0.170570000000     0          
C1       C      0.377000000000     0.387700000000     0.166260000000     0          
C2       C      0.346700000000     0.437800000000     0.180450000000     0          
C3       C      0.388700000000     0.439200000000     0.195740000000     0          
H2       H      0.434000000000     0.404900000000     0.197400000000     0          
C4       C      0.364200000000     0.491300000000     0.208610000000     0          
H3       H      0.392600000000     0.492100000000     0.219100000000     0          
C5       C      0.298600000000     0.542100000000     0.206280000000     0          
C6       C      0.256000000000     0.539000000000     0.191010000000     0          
H4       H      0.209700000000     0.572000000000     0.189400000000     0          
C7       C      0.281300000000     0.487400000000     0.177970000000     0          
H5       H      0.253300000000     0.486700000000     0.167400000000     0          
C8       C      0.278400000000     0.602500000000     0.219280000000     0          
C9       C      0.263900000000     0.576000000000     0.236220000000     0          
C10      C      0.258200000000     0.495800000000     0.241600000000     0          
H6       H      0.264700000000     0.449500000000     0.234600000000     0          
C11      C      0.286500000000     0.683000000000     0.214390000000     0          
C12      C      0.319400000000     0.710300000000     0.198520000000     0          
H7       H      0.338100000000     0.676800000000     0.189500000000     0          
O3       O      0.500000000000     0.340220000000     0.138500000000     0          
O1       O      0.156020000000     0.108500000000     0.401190000000     0          
O2       O      0.080870000000     0.171760000000     0.420570000000     0          
C1       C      0.137700000000     0.127000000000     0.416260000000     0          
C2       C      0.187800000000     0.096700000000     0.430450000000     0          
C3       C      0.189200000000     0.138700000000     0.445740000000     0          
H2       H      0.154900000000     0.184000000000     0.447400000000     0          
C4       C      0.241300000000     0.114200000000     0.458610000000     0          
H3       H      0.242100000000     0.142600000000     0.469100000000     0          
C5       C      0.292100000000     0.048600000000     0.456280000000     0          
C6       C      0.289000000000     0.006000000000     0.441010000000     0          
H4       H      0.322000000000     0.959700000000     0.439400000000     0          
C7       C      0.237400000000     0.031300000000     0.427970000000     0          
H5       H      0.236700000000     0.003300000000     0.417400000000     0          
C8       C      0.352500000000     0.028400000000     0.469280000000     0          
C9       C      0.326000000000     0.013900000000     0.486220000000     0          
C10      C      0.245800000000     0.008200000000     0.491600000000     0          
H6       H      0.199500000000     0.014700000000     0.484600000000     0          
C11      C      0.433000000000     0.036500000000     0.464390000000     0          
C12      C      0.460300000000     0.069400000000     0.448520000000     0          
H7       H      0.426800000000     0.088100000000     0.439500000000     0          
N2       N      0.375600000000     0.000000000000     0.500000000000     0          
H8?      H      0.428600000000     0.000000000000     0.500000000000     0          
O1       O      0.641500000000     0.406020000000     0.151190000000     0          
O2       O      0.578240000000     0.330870000000     0.170570000000     0          
C1       C      0.623000000000     0.387700000000     0.166260000000     0          
C2       C      0.653300000000     0.437800000000     0.180450000000     0          
C3       C      0.611300000000     0.439200000000     0.195740000000     0          
H2       H      0.566000000000     0.404900000000     0.197400000000     0          
C4       C      0.635800000000     0.491300000000     0.208610000000     0          
H3       H      0.607400000000     0.492100000000     0.219100000000     0          
C5       C      0.701400000000     0.542100000000     0.206280000000     0          
C6       C      0.744000000000     0.539000000000     0.191010000000     0          
H4       H      0.790300000000     0.572000000000     0.189400000000     0          
C7       C      0.718700000000     0.487400000000     0.177970000000     0          
H5       H      0.746700000000     0.486700000000     0.167400000000     0          
C8       C      0.721600000000     0.602500000000     0.219280000000     0          
C9       C      0.736100000000     0.576000000000     0.236220000000     0          
C10      C      0.741800000000     0.495800000000     0.241600000000     0          
H6       H      0.735300000000     0.449500000000     0.234600000000     0          
C11      C      0.713500000000     0.683000000000     0.214390000000     0          
C12      C      0.680600000000     0.710300000000     0.198520000000     0          
H7       H      0.661900000000     0.676800000000     0.189500000000     0          
N2       N      0.750000000000     0.625600000000     0.250000000000     0          
H8?      H      0.750000000000     0.678600000000     0.250000000000     0          
O1       O      0.343980000000     0.891500000000     0.901190000000     0          
O2       O      0.419130000000     0.828240000000     0.920570000000     0          
C1       C      0.362300000000     0.873000000000     0.916260000000     0          
C2       C      0.312200000000     0.903300000000     0.930450000000     0          
C3       C      0.310800000000     0.861300000000     0.945740000000     0          
H2       H      0.345100000000     0.816000000000     0.947400000000     0          
C4       C      0.258700000000     0.885800000000     0.958610000000     0          
H3       H      0.257900000000     0.857400000000     0.969100000000     0          
C5       C      0.207900000000     0.951400000000     0.956280000000     0          
C6       C      0.211000000000     0.994000000000     0.941010000000     0          
H4       H      0.178000000000     0.040300000000     0.939400000000     0          
C7       C      0.262600000000     0.968700000000     0.927970000000     0          
H5       H      0.263300000000     0.996700000000     0.917400000000     0          
C8       C      0.147500000000     0.971600000000     0.969280000000     0          
C9       C      0.174000000000     0.986100000000     0.986220000000     0          
C10      C      0.254200000000     0.991800000000     0.991600000000     0          
H6       H      0.300500000000     0.985300000000     0.984600000000     0          
C11      C      0.067000000000     0.963500000000     0.964390000000     0          
C12      C      0.039700000000     0.930600000000     0.948520000000     0          
H7       H      0.073200000000     0.911900000000     0.939500000000     0          
N2       N      0.124400000000     0.000000000000     0.000000000000     0          
H8?      H      0.071400000000     0.000000000000     0.000000000000     0          
O1       O      0.858500000000     0.593980000000     0.651190000000     0          
O2       O      0.921760000000     0.669130000000     0.670570000000     0          
C1       C      0.877000000000     0.612300000000     0.666260000000     0          
C2       C      0.846700000000     0.562200000000     0.680450000000     0          
C3       C      0.888700000000     0.560800000000     0.695740000000     0          
H2       H      0.934000000000     0.595100000000     0.697400000000     0          
C4       C      0.864200000000     0.508700000000     0.708610000000     0          
H3       H      0.892600000000     0.507900000000     0.719100000000     0          
C5       C      0.798600000000     0.457900000000     0.706280000000     0          
C6       C      0.756000000000     0.461000000000     0.691010000000     0          
H4       H      0.709700000000     0.428000000000     0.689400000000     0          
C7       C      0.781300000000     0.512600000000     0.677970000000     0          
H5       H      0.753300000000     0.513300000000     0.667400000000     0          
C8       C      0.778400000000     0.397500000000     0.719280000000     0          
C9       C      0.763900000000     0.424000000000     0.736220000000     0          
C10      C      0.758200000000     0.504200000000     0.741600000000     0          
H6       H      0.764700000000     0.550500000000     0.734600000000     0          
C11      C      0.786500000000     0.317000000000     0.714390000000     0          
C12      C      0.819400000000     0.289700000000     0.698520000000     0          
H7       H      0.838100000000     0.323200000000     0.689500000000     0          
N2       N      0.750000000000     0.374400000000     0.750000000000     0          
H8?      H      0.750000000000     0.321400000000     0.750000000000     0          
O1       O      0.156020000000     0.891500000000     0.598810000000     0          
O2       O      0.080870000000     0.828240000000     0.579430000000     0          
C1       C      0.137700000000     0.873000000000     0.583740000000     0          
C2       C      0.187800000000     0.903300000000     0.569550000000     0          
C3       C      0.189200000000     0.861300000000     0.554260000000     0          
H2       H      0.154900000000     0.816000000000     0.552600000000     0          
C4       C      0.241300000000     0.885800000000     0.541390000000     0          
H3       H      0.242100000000     0.857400000000     0.530900000000     0          
C5       C      0.292100000000     0.951400000000     0.543720000000     0          
C6       C      0.289000000000     0.994000000000     0.558990000000     0          
H4       H      0.322000000000     0.040300000000     0.560600000000     0          
C7       C      0.237400000000     0.968700000000     0.572030000000     0          
H5       H      0.236700000000     0.996700000000     0.582600000000     0          
C8       C      0.352500000000     0.971600000000     0.530720000000     0          
C9       C      0.326000000000     0.986100000000     0.513780000000     0          
C10      C      0.245800000000     0.991800000000     0.508400000000     0          
H6       H      0.199500000000     0.985300000000     0.515400000000     0          
C11      C      0.433000000000     0.963500000000     0.535610000000     0          
C12      C      0.460300000000     0.930600000000     0.551480000000     0          
H7       H      0.426800000000     0.911900000000     0.560500000000     0          
O1       O      0.858500000000     0.406020000000     0.348810000000     0          
O2       O      0.921760000000     0.330870000000     0.329430000000     0          
C1       C      0.877000000000     0.387700000000     0.333740000000     0          
C2       C      0.846700000000     0.437800000000     0.319550000000     0          
C3       C      0.888700000000     0.439200000000     0.304260000000     0          
H2       H      0.934000000000     0.404900000000     0.302600000000     0          
C4       C      0.864200000000     0.491300000000     0.291390000000     0          
H3       H      0.892600000000     0.492100000000     0.280900000000     0          
C5       C      0.798600000000     0.542100000000     0.293720000000     0          
C6       C      0.756000000000     0.539000000000     0.308990000000     0          
H4       H      0.709700000000     0.572000000000     0.310600000000     0          
C7       C      0.781300000000     0.487400000000     0.322030000000     0          
H5       H      0.753300000000     0.486700000000     0.332600000000     0          
C8       C      0.778400000000     0.602500000000     0.280720000000     0          
C9       C      0.763900000000     0.576000000000     0.263780000000     0          
C10      C      0.758200000000     0.495800000000     0.258400000000     0          
H6       H      0.764700000000     0.449500000000     0.265400000000     0          
C11      C      0.786500000000     0.683000000000     0.285610000000     0          
C12      C      0.819400000000     0.710300000000     0.301480000000     0          
H7       H      0.838100000000     0.676800000000     0.310500000000     0          
O1       O      0.343980000000     0.108500000000     0.098810000000     0          
O2       O      0.419130000000     0.171760000000     0.079430000000     0          
C1       C      0.362300000000     0.127000000000     0.083740000000     0          
C2       C      0.312200000000     0.096700000000     0.069550000000     0          
C3       C      0.310800000000     0.138700000000     0.054260000000     0          
H2       H      0.345100000000     0.184000000000     0.052600000000     0          
C4       C      0.258700000000     0.114200000000     0.041390000000     0          
H3       H      0.257900000000     0.142600000000     0.030900000000     0          
C5       C      0.207900000000     0.048600000000     0.043720000000     0          
C6       C      0.211000000000     0.006000000000     0.058990000000     0          
H4       H      0.178000000000     0.959700000000     0.060600000000     0          
C7       C      0.262600000000     0.031300000000     0.072030000000     0          
H5       H      0.263300000000     0.003300000000     0.082600000000     0          
C8       C      0.147500000000     0.028400000000     0.030720000000     0          
C9       C      0.174000000000     0.013900000000     0.013780000000     0          
C10      C      0.254200000000     0.008200000000     0.008400000000     0          
H6       H      0.300500000000     0.014700000000     0.015400000000     0          
C11      C      0.067000000000     0.036500000000     0.035610000000     0          
C12      C      0.039700000000     0.069400000000     0.051480000000     0          
H7       H      0.073200000000     0.088100000000     0.060500000000     0          
O1       O      0.641500000000     0.593980000000     0.848810000000     0          
O2       O      0.578240000000     0.669130000000     0.829430000000     0          
C1       C      0.623000000000     0.612300000000     0.833740000000     0          
C2       C      0.653300000000     0.562200000000     0.819550000000     0          
C3       C      0.611300000000     0.560800000000     0.804260000000     0          
H2       H      0.566000000000     0.595100000000     0.802600000000     0          
C4       C      0.635800000000     0.508700000000     0.791390000000     0          
H3       H      0.607400000000     0.507900000000     0.780900000000     0          
C5       C      0.701400000000     0.457900000000     0.793720000000     0          
C6       C      0.744000000000     0.461000000000     0.808990000000     0          
H4       H      0.790300000000     0.428000000000     0.810600000000     0          
C7       C      0.718700000000     0.512600000000     0.822030000000     0          
H5       H      0.746700000000     0.513300000000     0.832600000000     0          
C8       C      0.721600000000     0.397500000000     0.780720000000     0          
C9       C      0.736100000000     0.424000000000     0.763780000000     0          
C10      C      0.741800000000     0.504200000000     0.758400000000     0          
H6       H      0.735300000000     0.550500000000     0.765400000000     0          
C11      C      0.713500000000     0.317000000000     0.785610000000     0          
C12      C      0.680600000000     0.289700000000     0.801480000000     0          
H7       H      0.661900000000     0.323200000000     0.810500000000     0          


