data_DOGBAE

_audit_creation_method RASPA-1.0
_audit_creation_date 2020-11-2
_audit_author_name 'Rocio Bueno-Perez'

_cell_length_a    38.465
_cell_length_b    38.465
_cell_length_c    38.465
_cell_angle_alpha 90
_cell_angle_beta  90
_cell_angle_gamma 90
_cell_volume      56911.1

_symmetry_cell_setting          cubic
_symmetry_space_group_name_Hall 'P 1'
_symmetry_space_group_name_H-M  'P 1'
_symmetry_Int_Tables_number     1

_symmetry_equiv_pos_as_xyz 'x,y,z'

loop_
_atom_site_label
_atom_site_type_symbol
_atom_site_fract_x
_atom_site_fract_y
_atom_site_fract_z
_atom_site_charge
O2       O      0.315200000000     0.171500000000     0.220600000000     0          
C3       C      0.366700000000     0.121600000000     0.219780000000     0          
H1       H      0.354100000000     0.126500000000     0.199100000000     0          
C4       C      0.392000000000     0.095900000000     0.219920000000     0          
H2       H      0.396400000000     0.082900000000     0.199400000000     0          
C9?      C      0.473900000000     0.074600000000     0.259600000000     0          
C10?     C      0.481300000000     0.109000000000     0.263400000000     0          
H4?      H      0.465800000000     0.128100000000     0.265400000000     0          
Zr1      Zr     0.271740000000     0.207150000000     0.207150000000     0          
O1       O      0.298900000000     0.237900000000     0.237900000000     0          
Zr2      Zr     0.500000000000     0.000000000000     0.250000000000     0          
C1       C      0.332900000000     0.167100000000     0.250000000000     0          
C2       C      0.359640000000     0.140360000000     0.250000000000     0          
C5       C      0.410900000000     0.089100000000     0.250000000000     0          
C6       C      0.436100000000     0.063900000000     0.250000000000     0          
N2?      N      0.500000000000     0.049800000000     0.256900000000     0          
O3       O      0.216530000000     0.216530000000     0.216530000000     0          
O2       O      0.828500000000     0.315200000000     0.220600000000     0          
C3       C      0.878400000000     0.366700000000     0.219780000000     0          
H1       H      0.873500000000     0.354100000000     0.199100000000     0          
C4       C      0.904100000000     0.392000000000     0.219920000000     0          
H2       H      0.917100000000     0.396400000000     0.199400000000     0          
C9?      C      0.925400000000     0.473900000000     0.259600000000     0          
C10?     C      0.891000000000     0.481300000000     0.263400000000     0          
H4?      H      0.871900000000     0.465800000000     0.265400000000     0          
Zr1      Zr     0.792850000000     0.271740000000     0.207150000000     0          
O1       O      0.762100000000     0.298900000000     0.237900000000     0          
Zr2      Zr     0.000000000000     0.500000000000     0.250000000000     0          
C1       C      0.832900000000     0.332900000000     0.250000000000     0          
C2       C      0.859640000000     0.359640000000     0.250000000000     0          
C5       C      0.910900000000     0.410900000000     0.250000000000     0          
C6       C      0.936100000000     0.436100000000     0.250000000000     0          
N2?      N      0.950200000000     0.500000000000     0.256900000000     0          
O3       O      0.783470000000     0.216530000000     0.216530000000     0          
O2       O      0.684800000000     0.828500000000     0.220600000000     0          
C3       C      0.633300000000     0.878400000000     0.219780000000     0          
H1       H      0.645900000000     0.873500000000     0.199100000000     0          
C4       C      0.608000000000     0.904100000000     0.219920000000     0          
H2       H      0.603600000000     0.917100000000     0.199400000000     0          
C9?      C      0.526100000000     0.925400000000     0.259600000000     0          
C10?     C      0.518700000000     0.891000000000     0.263400000000     0          
H4?      H      0.534200000000     0.871900000000     0.265400000000     0          
Zr1      Zr     0.728260000000     0.792850000000     0.207150000000     0          
O1       O      0.701100000000     0.762100000000     0.237900000000     0          
C1       C      0.667100000000     0.832900000000     0.250000000000     0          
C2       C      0.640360000000     0.859640000000     0.250000000000     0          
C5       C      0.589100000000     0.910900000000     0.250000000000     0          
C6       C      0.563900000000     0.936100000000     0.250000000000     0          
N2?      N      0.500000000000     0.950200000000     0.256900000000     0          
O3       O      0.783470000000     0.783470000000     0.216530000000     0          
O2       O      0.171500000000     0.684800000000     0.220600000000     0          
C3       C      0.121600000000     0.633300000000     0.219780000000     0          
H1       H      0.126500000000     0.645900000000     0.199100000000     0          
C4       C      0.095900000000     0.608000000000     0.219920000000     0          
H2       H      0.082900000000     0.603600000000     0.199400000000     0          
C9?      C      0.074600000000     0.526100000000     0.259600000000     0          
C10?     C      0.109000000000     0.518700000000     0.263400000000     0          
H4?      H      0.128100000000     0.534200000000     0.265400000000     0          
Zr1      Zr     0.207150000000     0.728260000000     0.207150000000     0          
O1       O      0.237900000000     0.701100000000     0.237900000000     0          
C1       C      0.167100000000     0.667100000000     0.250000000000     0          
C2       C      0.140360000000     0.640360000000     0.250000000000     0          
C5       C      0.089100000000     0.589100000000     0.250000000000     0          
C6       C      0.063900000000     0.563900000000     0.250000000000     0          
N2?      N      0.049800000000     0.500000000000     0.256900000000     0          
O3       O      0.216530000000     0.783470000000     0.216530000000     0          
O2       O      0.315200000000     0.828500000000     0.779400000000     0          
C3       C      0.366700000000     0.878400000000     0.780220000000     0          
H1       H      0.354100000000     0.873500000000     0.800900000000     0          
C4       C      0.392000000000     0.904100000000     0.780080000000     0          
H2       H      0.396400000000     0.917100000000     0.800600000000     0          
C9?      C      0.473900000000     0.925400000000     0.740400000000     0          
C10?     C      0.481300000000     0.891000000000     0.736600000000     0          
H4?      H      0.465800000000     0.871900000000     0.734600000000     0          
Zr1      Zr     0.271740000000     0.792850000000     0.792850000000     0          
O1       O      0.298900000000     0.762100000000     0.762100000000     0          
Zr2      Zr     0.500000000000     0.000000000000     0.750000000000     0          
C1       C      0.332900000000     0.832900000000     0.750000000000     0          
C2       C      0.359640000000     0.859640000000     0.750000000000     0          
C5       C      0.410900000000     0.910900000000     0.750000000000     0          
C6       C      0.436100000000     0.936100000000     0.750000000000     0          
N2?      N      0.500000000000     0.950200000000     0.743100000000     0          
O3       O      0.216530000000     0.783470000000     0.783470000000     0          
O2       O      0.171500000000     0.315200000000     0.779400000000     0          
C3       C      0.121600000000     0.366700000000     0.780220000000     0          
H1       H      0.126500000000     0.354100000000     0.800900000000     0          
C4       C      0.095900000000     0.392000000000     0.780080000000     0          
H2       H      0.082900000000     0.396400000000     0.800600000000     0          
C9?      C      0.074600000000     0.473900000000     0.740400000000     0          
C10?     C      0.109000000000     0.481300000000     0.736600000000     0          
H4?      H      0.128100000000     0.465800000000     0.734600000000     0          
Zr1      Zr     0.207150000000     0.271740000000     0.792850000000     0          
O1       O      0.237900000000     0.298900000000     0.762100000000     0          
Zr2      Zr     0.000000000000     0.500000000000     0.750000000000     0          
C1       C      0.167100000000     0.332900000000     0.750000000000     0          
C2       C      0.140360000000     0.359640000000     0.750000000000     0          
C5       C      0.089100000000     0.410900000000     0.750000000000     0          
C6       C      0.063900000000     0.436100000000     0.750000000000     0          
N2?      N      0.049800000000     0.500000000000     0.743100000000     0          
O3       O      0.216530000000     0.216530000000     0.783470000000     0          
O2       O      0.684800000000     0.171500000000     0.779400000000     0          
C3       C      0.633300000000     0.121600000000     0.780220000000     0          
H1       H      0.645900000000     0.126500000000     0.800900000000     0          
C4       C      0.608000000000     0.095900000000     0.780080000000     0          
H2       H      0.603600000000     0.082900000000     0.800600000000     0          
C9?      C      0.526100000000     0.074600000000     0.740400000000     0          
C10?     C      0.518700000000     0.109000000000     0.736600000000     0          
H4?      H      0.534200000000     0.128100000000     0.734600000000     0          
Zr1      Zr     0.728260000000     0.207150000000     0.792850000000     0          
O1       O      0.701100000000     0.237900000000     0.762100000000     0          
C1       C      0.667100000000     0.167100000000     0.750000000000     0          
C2       C      0.640360000000     0.140360000000     0.750000000000     0          
C5       C      0.589100000000     0.089100000000     0.750000000000     0          
C6       C      0.563900000000     0.063900000000     0.750000000000     0          
N2?      N      0.500000000000     0.049800000000     0.743100000000     0          
O3       O      0.783470000000     0.216530000000     0.783470000000     0          
O2       O      0.828500000000     0.684800000000     0.779400000000     0          
C3       C      0.878400000000     0.633300000000     0.780220000000     0          
H1       H      0.873500000000     0.645900000000     0.800900000000     0          
C4       C      0.904100000000     0.608000000000     0.780080000000     0          
H2       H      0.917100000000     0.603600000000     0.800600000000     0          
C9?      C      0.925400000000     0.526100000000     0.740400000000     0          
C10?     C      0.891000000000     0.518700000000     0.736600000000     0          
H4?      H      0.871900000000     0.534200000000     0.734600000000     0          
Zr1      Zr     0.792850000000     0.728260000000     0.792850000000     0          
O1       O      0.762100000000     0.701100000000     0.762100000000     0          
C1       C      0.832900000000     0.667100000000     0.750000000000     0          
C2       C      0.859640000000     0.640360000000     0.750000000000     0          
C5       C      0.910900000000     0.589100000000     0.750000000000     0          
C6       C      0.936100000000     0.563900000000     0.750000000000     0          
N2?      N      0.950200000000     0.500000000000     0.743100000000     0          
O3       O      0.783470000000     0.783470000000     0.783470000000     0          
O2       O      0.220600000000     0.315200000000     0.171500000000     0          
C3       C      0.219780000000     0.366700000000     0.121600000000     0          
H1       H      0.199100000000     0.354100000000     0.126500000000     0          
C4       C      0.219920000000     0.392000000000     0.095900000000     0          
H2       H      0.199400000000     0.396400000000     0.082900000000     0          
C9?      C      0.259600000000     0.473900000000     0.074600000000     0          
C10?     C      0.263400000000     0.481300000000     0.109000000000     0          
H4?      H      0.265400000000     0.465800000000     0.128100000000     0          
Zr1      Zr     0.207150000000     0.271740000000     0.207150000000     0          
O1       O      0.237900000000     0.298900000000     0.237900000000     0          
Zr2      Zr     0.250000000000     0.500000000000     0.000000000000     0          
C1       C      0.250000000000     0.332900000000     0.167100000000     0          
C2       C      0.250000000000     0.359640000000     0.140360000000     0          
C5       C      0.250000000000     0.410900000000     0.089100000000     0          
C6       C      0.250000000000     0.436100000000     0.063900000000     0          
N2?      N      0.256900000000     0.500000000000     0.049800000000     0          
O2       O      0.684800000000     0.220600000000     0.171500000000     0          
C3       C      0.633300000000     0.219780000000     0.121600000000     0          
H1       H      0.645900000000     0.199100000000     0.126500000000     0          
C4       C      0.608000000000     0.219920000000     0.095900000000     0          
H2       H      0.603600000000     0.199400000000     0.082900000000     0          
C9?      C      0.526100000000     0.259600000000     0.074600000000     0          
C10?     C      0.518700000000     0.263400000000     0.109000000000     0          
H4?      H      0.534200000000     0.265400000000     0.128100000000     0          
Zr1      Zr     0.728260000000     0.207150000000     0.207150000000     0          
O1       O      0.701100000000     0.237900000000     0.237900000000     0          
Zr2      Zr     0.500000000000     0.250000000000     0.000000000000     0          
C1       C      0.667100000000     0.250000000000     0.167100000000     0          
C2       C      0.640360000000     0.250000000000     0.140360000000     0          
C5       C      0.589100000000     0.250000000000     0.089100000000     0          
C6       C      0.563900000000     0.250000000000     0.063900000000     0          
N2?      N      0.500000000000     0.256900000000     0.049800000000     0          
O2       O      0.779400000000     0.684800000000     0.171500000000     0          
C3       C      0.780220000000     0.633300000000     0.121600000000     0          
H1       H      0.800900000000     0.645900000000     0.126500000000     0          
C4       C      0.780080000000     0.608000000000     0.095900000000     0          
H2       H      0.800600000000     0.603600000000     0.082900000000     0          
C9?      C      0.740400000000     0.526100000000     0.074600000000     0          
C10?     C      0.736600000000     0.518700000000     0.109000000000     0          
H4?      H      0.734600000000     0.534200000000     0.128100000000     0          
Zr1      Zr     0.792850000000     0.728260000000     0.207150000000     0          
O1       O      0.762100000000     0.701100000000     0.237900000000     0          
Zr2      Zr     0.750000000000     0.500000000000     0.000000000000     0          
C1       C      0.750000000000     0.667100000000     0.167100000000     0          
C2       C      0.750000000000     0.640360000000     0.140360000000     0          
C5       C      0.750000000000     0.589100000000     0.089100000000     0          
C6       C      0.750000000000     0.563900000000     0.063900000000     0          
N2?      N      0.743100000000     0.500000000000     0.049800000000     0          
O2       O      0.315200000000     0.779400000000     0.171500000000     0          
C3       C      0.366700000000     0.780220000000     0.121600000000     0          
H1       H      0.354100000000     0.800900000000     0.126500000000     0          
C4       C      0.392000000000     0.780080000000     0.095900000000     0          
H2       H      0.396400000000     0.800600000000     0.082900000000     0          
C9?      C      0.473900000000     0.740400000000     0.074600000000     0          
C10?     C      0.481300000000     0.736600000000     0.109000000000     0          
H4?      H      0.465800000000     0.734600000000     0.128100000000     0          
Zr1      Zr     0.271740000000     0.792850000000     0.207150000000     0          
O1       O      0.298900000000     0.762100000000     0.237900000000     0          
Zr2      Zr     0.500000000000     0.750000000000     0.000000000000     0          
C1       C      0.332900000000     0.750000000000     0.167100000000     0          
C2       C      0.359640000000     0.750000000000     0.140360000000     0          
C5       C      0.410900000000     0.750000000000     0.089100000000     0          
C6       C      0.436100000000     0.750000000000     0.063900000000     0          
N2?      N      0.500000000000     0.743100000000     0.049800000000     0          
O2       O      0.220600000000     0.684800000000     0.828500000000     0          
C3       C      0.219780000000     0.633300000000     0.878400000000     0          
H1       H      0.199100000000     0.645900000000     0.873500000000     0          
C4       C      0.219920000000     0.608000000000     0.904100000000     0          
H2       H      0.199400000000     0.603600000000     0.917100000000     0          
C9?      C      0.259600000000     0.526100000000     0.925400000000     0          
C10?     C      0.263400000000     0.518700000000     0.891000000000     0          
H4?      H      0.265400000000     0.534200000000     0.871900000000     0          
Zr1      Zr     0.207150000000     0.728260000000     0.792850000000     0          
O1       O      0.237900000000     0.701100000000     0.762100000000     0          
C1       C      0.250000000000     0.667100000000     0.832900000000     0          
C2       C      0.250000000000     0.640360000000     0.859640000000     0          
C5       C      0.250000000000     0.589100000000     0.910900000000     0          
C6       C      0.250000000000     0.563900000000     0.936100000000     0          
N2?      N      0.256900000000     0.500000000000     0.950200000000     0          
O2       O      0.315200000000     0.220600000000     0.828500000000     0          
C3       C      0.366700000000     0.219780000000     0.878400000000     0          
H1       H      0.354100000000     0.199100000000     0.873500000000     0          
C4       C      0.392000000000     0.219920000000     0.904100000000     0          
H2       H      0.396400000000     0.199400000000     0.917100000000     0          
C9?      C      0.473900000000     0.259600000000     0.925400000000     0          
C10?     C      0.481300000000     0.263400000000     0.891000000000     0          
H4?      H      0.465800000000     0.265400000000     0.871900000000     0          
Zr1      Zr     0.271740000000     0.207150000000     0.792850000000     0          
O1       O      0.298900000000     0.237900000000     0.762100000000     0          
C1       C      0.332900000000     0.250000000000     0.832900000000     0          
C2       C      0.359640000000     0.250000000000     0.859640000000     0          
C5       C      0.410900000000     0.250000000000     0.910900000000     0          
C6       C      0.436100000000     0.250000000000     0.936100000000     0          
N2?      N      0.500000000000     0.256900000000     0.950200000000     0          
O2       O      0.779400000000     0.315200000000     0.828500000000     0          
C3       C      0.780220000000     0.366700000000     0.878400000000     0          
H1       H      0.800900000000     0.354100000000     0.873500000000     0          
C4       C      0.780080000000     0.392000000000     0.904100000000     0          
H2       H      0.800600000000     0.396400000000     0.917100000000     0          
C9?      C      0.740400000000     0.473900000000     0.925400000000     0          
C10?     C      0.736600000000     0.481300000000     0.891000000000     0          
H4?      H      0.734600000000     0.465800000000     0.871900000000     0          
Zr1      Zr     0.792850000000     0.271740000000     0.792850000000     0          
O1       O      0.762100000000     0.298900000000     0.762100000000     0          
C1       C      0.750000000000     0.332900000000     0.832900000000     0          
C2       C      0.750000000000     0.359640000000     0.859640000000     0          
C5       C      0.750000000000     0.410900000000     0.910900000000     0          
C6       C      0.750000000000     0.436100000000     0.936100000000     0          
N2?      N      0.743100000000     0.500000000000     0.950200000000     0          
O2       O      0.684800000000     0.779400000000     0.828500000000     0          
C3       C      0.633300000000     0.780220000000     0.878400000000     0          
H1       H      0.645900000000     0.800900000000     0.873500000000     0          
C4       C      0.608000000000     0.780080000000     0.904100000000     0          
H2       H      0.603600000000     0.800600000000     0.917100000000     0          
C9?      C      0.526100000000     0.740400000000     0.925400000000     0          
C10?     C      0.518700000000     0.736600000000     0.891000000000     0          
H4?      H      0.534200000000     0.734600000000     0.871900000000     0          
Zr1      Zr     0.728260000000     0.792850000000     0.792850000000     0          
O1       O      0.701100000000     0.762100000000     0.762100000000     0          
C1       C      0.667100000000     0.750000000000     0.832900000000     0          
C2       C      0.640360000000     0.750000000000     0.859640000000     0          
C5       C      0.589100000000     0.750000000000     0.910900000000     0          
C6       C      0.563900000000     0.750000000000     0.936100000000     0          
N2?      N      0.500000000000     0.743100000000     0.950200000000     0          
O2       O      0.171500000000     0.220600000000     0.315200000000     0          
C3       C      0.121600000000     0.219780000000     0.366700000000     0          
H1       H      0.126500000000     0.199100000000     0.354100000000     0          
C4       C      0.095900000000     0.219920000000     0.392000000000     0          
H2       H      0.082900000000     0.199400000000     0.396400000000     0          
C9?      C      0.074600000000     0.259600000000     0.473900000000     0          
C10?     C      0.109000000000     0.263400000000     0.481300000000     0          
H4?      H      0.128100000000     0.265400000000     0.465800000000     0          
Zr1      Zr     0.207150000000     0.207150000000     0.271740000000     0          
O1       O      0.237900000000     0.237900000000     0.298900000000     0          
Zr2      Zr     0.000000000000     0.250000000000     0.500000000000     0          
C1       C      0.167100000000     0.250000000000     0.332900000000     0          
C2       C      0.140360000000     0.250000000000     0.359640000000     0          
C5       C      0.089100000000     0.250000000000     0.410900000000     0          
C6       C      0.063900000000     0.250000000000     0.436100000000     0          
N2?      N      0.049800000000     0.256900000000     0.500000000000     0          
O2       O      0.171500000000     0.779400000000     0.684800000000     0          
C3       C      0.121600000000     0.780220000000     0.633300000000     0          
H1       H      0.126500000000     0.800900000000     0.645900000000     0          
C4       C      0.095900000000     0.780080000000     0.608000000000     0          
H2       H      0.082900000000     0.800600000000     0.603600000000     0          
C9?      C      0.074600000000     0.740400000000     0.526100000000     0          
C10?     C      0.109000000000     0.736600000000     0.518700000000     0          
H4?      H      0.128100000000     0.734600000000     0.534200000000     0          
Zr1      Zr     0.207150000000     0.792850000000     0.728260000000     0          
O1       O      0.237900000000     0.762100000000     0.701100000000     0          
Zr2      Zr     0.000000000000     0.750000000000     0.500000000000     0          
C1       C      0.167100000000     0.750000000000     0.667100000000     0          
C2       C      0.140360000000     0.750000000000     0.640360000000     0          
C5       C      0.089100000000     0.750000000000     0.589100000000     0          
C6       C      0.063900000000     0.750000000000     0.563900000000     0          
N2?      N      0.049800000000     0.743100000000     0.500000000000     0          
O2       O      0.220600000000     0.171500000000     0.684800000000     0          
C3       C      0.219780000000     0.121600000000     0.633300000000     0          
H1       H      0.199100000000     0.126500000000     0.645900000000     0          
C4       C      0.219920000000     0.095900000000     0.608000000000     0          
H2       H      0.199400000000     0.082900000000     0.603600000000     0          
C9?      C      0.259600000000     0.074600000000     0.526100000000     0          
C10?     C      0.263400000000     0.109000000000     0.518700000000     0          
H4?      H      0.265400000000     0.128100000000     0.534200000000     0          
Zr1      Zr     0.207150000000     0.207150000000     0.728260000000     0          
O1       O      0.237900000000     0.237900000000     0.701100000000     0          
Zr2      Zr     0.250000000000     0.000000000000     0.500000000000     0          
C1       C      0.250000000000     0.167100000000     0.667100000000     0          
C2       C      0.250000000000     0.140360000000     0.640360000000     0          
C5       C      0.250000000000     0.089100000000     0.589100000000     0          
C6       C      0.250000000000     0.063900000000     0.563900000000     0          
N2?      N      0.256900000000     0.049800000000     0.500000000000     0          
O2       O      0.828500000000     0.220600000000     0.684800000000     0          
C3       C      0.878400000000     0.219780000000     0.633300000000     0          
H1       H      0.873500000000     0.199100000000     0.645900000000     0          
C4       C      0.904100000000     0.219920000000     0.608000000000     0          
H2       H      0.917100000000     0.199400000000     0.603600000000     0          
C9?      C      0.925400000000     0.259600000000     0.526100000000     0          
C10?     C      0.891000000000     0.263400000000     0.518700000000     0          
H4?      H      0.871900000000     0.265400000000     0.534200000000     0          
Zr1      Zr     0.792850000000     0.207150000000     0.728260000000     0          
O1       O      0.762100000000     0.237900000000     0.701100000000     0          
C1       C      0.832900000000     0.250000000000     0.667100000000     0          
C2       C      0.859640000000     0.250000000000     0.640360000000     0          
C5       C      0.910900000000     0.250000000000     0.589100000000     0          
C6       C      0.936100000000     0.250000000000     0.563900000000     0          
N2?      N      0.950200000000     0.256900000000     0.500000000000     0          
O2       O      0.779400000000     0.828500000000     0.684800000000     0          
C3       C      0.780220000000     0.878400000000     0.633300000000     0          
H1       H      0.800900000000     0.873500000000     0.645900000000     0          
C4       C      0.780080000000     0.904100000000     0.608000000000     0          
H2       H      0.800600000000     0.917100000000     0.603600000000     0          
C9?      C      0.740400000000     0.925400000000     0.526100000000     0          
C10?     C      0.736600000000     0.891000000000     0.518700000000     0          
H4?      H      0.734600000000     0.871900000000     0.534200000000     0          
Zr1      Zr     0.792850000000     0.792850000000     0.728260000000     0          
O1       O      0.762100000000     0.762100000000     0.701100000000     0          
Zr2      Zr     0.750000000000     0.000000000000     0.500000000000     0          
C1       C      0.750000000000     0.832900000000     0.667100000000     0          
C2       C      0.750000000000     0.859640000000     0.640360000000     0          
C5       C      0.750000000000     0.910900000000     0.589100000000     0          
C6       C      0.750000000000     0.936100000000     0.563900000000     0          
N2?      N      0.743100000000     0.950200000000     0.500000000000     0          
O2       O      0.828500000000     0.779400000000     0.315200000000     0          
C3       C      0.878400000000     0.780220000000     0.366700000000     0          
H1       H      0.873500000000     0.800900000000     0.354100000000     0          
C4       C      0.904100000000     0.780080000000     0.392000000000     0          
H2       H      0.917100000000     0.800600000000     0.396400000000     0          
C9?      C      0.925400000000     0.740400000000     0.473900000000     0          
C10?     C      0.891000000000     0.736600000000     0.481300000000     0          
H4?      H      0.871900000000     0.734600000000     0.465800000000     0          
Zr1      Zr     0.792850000000     0.792850000000     0.271740000000     0          
O1       O      0.762100000000     0.762100000000     0.298900000000     0          
C1       C      0.832900000000     0.750000000000     0.332900000000     0          
C2       C      0.859640000000     0.750000000000     0.359640000000     0          
C5       C      0.910900000000     0.750000000000     0.410900000000     0          
C6       C      0.936100000000     0.750000000000     0.436100000000     0          
N2?      N      0.950200000000     0.743100000000     0.500000000000     0          
O2       O      0.220600000000     0.828500000000     0.315200000000     0          
C3       C      0.219780000000     0.878400000000     0.366700000000     0          
H1       H      0.199100000000     0.873500000000     0.354100000000     0          
C4       C      0.219920000000     0.904100000000     0.392000000000     0          
H2       H      0.199400000000     0.917100000000     0.396400000000     0          
C9?      C      0.259600000000     0.925400000000     0.473900000000     0          
C10?     C      0.263400000000     0.891000000000     0.481300000000     0          
H4?      H      0.265400000000     0.871900000000     0.465800000000     0          
Zr1      Zr     0.207150000000     0.792850000000     0.271740000000     0          
O1       O      0.237900000000     0.762100000000     0.298900000000     0          
C1       C      0.250000000000     0.832900000000     0.332900000000     0          
C2       C      0.250000000000     0.859640000000     0.359640000000     0          
C5       C      0.250000000000     0.910900000000     0.410900000000     0          
C6       C      0.250000000000     0.936100000000     0.436100000000     0          
N2?      N      0.256900000000     0.950200000000     0.500000000000     0          
O2       O      0.779400000000     0.171500000000     0.315200000000     0          
C3       C      0.780220000000     0.121600000000     0.366700000000     0          
H1       H      0.800900000000     0.126500000000     0.354100000000     0          
C4       C      0.780080000000     0.095900000000     0.392000000000     0          
H2       H      0.800600000000     0.082900000000     0.396400000000     0          
C9?      C      0.740400000000     0.074600000000     0.473900000000     0          
C10?     C      0.736600000000     0.109000000000     0.481300000000     0          
H4?      H      0.734600000000     0.128100000000     0.465800000000     0          
Zr1      Zr     0.792850000000     0.207150000000     0.271740000000     0          
O1       O      0.762100000000     0.237900000000     0.298900000000     0          
C1       C      0.750000000000     0.167100000000     0.332900000000     0          
C2       C      0.750000000000     0.140360000000     0.359640000000     0          
C5       C      0.750000000000     0.089100000000     0.410900000000     0          
C6       C      0.750000000000     0.063900000000     0.436100000000     0          
N2?      N      0.743100000000     0.049800000000     0.500000000000     0          
O2       O      0.684800000000     0.828500000000     0.779400000000     0          
C3       C      0.633300000000     0.878400000000     0.780220000000     0          
H1       H      0.645900000000     0.873500000000     0.800900000000     0          
C4       C      0.608000000000     0.904100000000     0.780080000000     0          
H2       H      0.603600000000     0.917100000000     0.800600000000     0          
C9?      C      0.526100000000     0.925400000000     0.740400000000     0          
C10?     C      0.518700000000     0.891000000000     0.736600000000     0          
H4?      H      0.534200000000     0.871900000000     0.734600000000     0          
C1       C      0.667100000000     0.832900000000     0.750000000000     0          
C2       C      0.640360000000     0.859640000000     0.750000000000     0          
C5       C      0.589100000000     0.910900000000     0.750000000000     0          
C6       C      0.563900000000     0.936100000000     0.750000000000     0          
O2       O      0.171500000000     0.684800000000     0.779400000000     0          
C3       C      0.121600000000     0.633300000000     0.780220000000     0          
H1       H      0.126500000000     0.645900000000     0.800900000000     0          
C4       C      0.095900000000     0.608000000000     0.780080000000     0          
H2       H      0.082900000000     0.603600000000     0.800600000000     0          
C9?      C      0.074600000000     0.526100000000     0.740400000000     0          
C10?     C      0.109000000000     0.518700000000     0.736600000000     0          
H4?      H      0.128100000000     0.534200000000     0.734600000000     0          
C1       C      0.167100000000     0.667100000000     0.750000000000     0          
C2       C      0.140360000000     0.640360000000     0.750000000000     0          
C5       C      0.089100000000     0.589100000000     0.750000000000     0          
C6       C      0.063900000000     0.563900000000     0.750000000000     0          
O2       O      0.315200000000     0.171500000000     0.779400000000     0          
C3       C      0.366700000000     0.121600000000     0.780220000000     0          
H1       H      0.354100000000     0.126500000000     0.800900000000     0          
C4       C      0.392000000000     0.095900000000     0.780080000000     0          
H2       H      0.396400000000     0.082900000000     0.800600000000     0          
C9?      C      0.473900000000     0.074600000000     0.740400000000     0          
C10?     C      0.481300000000     0.109000000000     0.736600000000     0          
H4?      H      0.465800000000     0.128100000000     0.734600000000     0          
C1       C      0.332900000000     0.167100000000     0.750000000000     0          
C2       C      0.359640000000     0.140360000000     0.750000000000     0          
C5       C      0.410900000000     0.089100000000     0.750000000000     0          
C6       C      0.436100000000     0.063900000000     0.750000000000     0          
O2       O      0.828500000000     0.315200000000     0.779400000000     0          
C3       C      0.878400000000     0.366700000000     0.780220000000     0          
H1       H      0.873500000000     0.354100000000     0.800900000000     0          
C4       C      0.904100000000     0.392000000000     0.780080000000     0          
H2       H      0.917100000000     0.396400000000     0.800600000000     0          
C9?      C      0.925400000000     0.473900000000     0.740400000000     0          
C10?     C      0.891000000000     0.481300000000     0.736600000000     0          
H4?      H      0.871900000000     0.465800000000     0.734600000000     0          
C1       C      0.832900000000     0.332900000000     0.750000000000     0          
C2       C      0.859640000000     0.359640000000     0.750000000000     0          
C5       C      0.910900000000     0.410900000000     0.750000000000     0          
C6       C      0.936100000000     0.436100000000     0.750000000000     0          
O2       O      0.684800000000     0.171500000000     0.220600000000     0          
C3       C      0.633300000000     0.121600000000     0.219780000000     0          
H1       H      0.645900000000     0.126500000000     0.199100000000     0          
C4       C      0.608000000000     0.095900000000     0.219920000000     0          
H2       H      0.603600000000     0.082900000000     0.199400000000     0          
C9?      C      0.526100000000     0.074600000000     0.259600000000     0          
C10?     C      0.518700000000     0.109000000000     0.263400000000     0          
H4?      H      0.534200000000     0.128100000000     0.265400000000     0          
C1       C      0.667100000000     0.167100000000     0.250000000000     0          
C2       C      0.640360000000     0.140360000000     0.250000000000     0          
C5       C      0.589100000000     0.089100000000     0.250000000000     0          
C6       C      0.563900000000     0.063900000000     0.250000000000     0          
O2       O      0.828500000000     0.684800000000     0.220600000000     0          
C3       C      0.878400000000     0.633300000000     0.219780000000     0          
H1       H      0.873500000000     0.645900000000     0.199100000000     0          
C4       C      0.904100000000     0.608000000000     0.219920000000     0          
H2       H      0.917100000000     0.603600000000     0.199400000000     0          
C9?      C      0.925400000000     0.526100000000     0.259600000000     0          
C10?     C      0.891000000000     0.518700000000     0.263400000000     0          
H4?      H      0.871900000000     0.534200000000     0.265400000000     0          
C1       C      0.832900000000     0.667100000000     0.250000000000     0          
C2       C      0.859640000000     0.640360000000     0.250000000000     0          
C5       C      0.910900000000     0.589100000000     0.250000000000     0          
C6       C      0.936100000000     0.563900000000     0.250000000000     0          
O2       O      0.315200000000     0.828500000000     0.220600000000     0          
C3       C      0.366700000000     0.878400000000     0.219780000000     0          
H1       H      0.354100000000     0.873500000000     0.199100000000     0          
C4       C      0.392000000000     0.904100000000     0.219920000000     0          
H2       H      0.396400000000     0.917100000000     0.199400000000     0          
C9?      C      0.473900000000     0.925400000000     0.259600000000     0          
C10?     C      0.481300000000     0.891000000000     0.263400000000     0          
H4?      H      0.465800000000     0.871900000000     0.265400000000     0          
C1       C      0.332900000000     0.832900000000     0.250000000000     0          
C2       C      0.359640000000     0.859640000000     0.250000000000     0          
C5       C      0.410900000000     0.910900000000     0.250000000000     0          
C6       C      0.436100000000     0.936100000000     0.250000000000     0          
O2       O      0.171500000000     0.315200000000     0.220600000000     0          
C3       C      0.121600000000     0.366700000000     0.219780000000     0          
H1       H      0.126500000000     0.354100000000     0.199100000000     0          
C4       C      0.095900000000     0.392000000000     0.219920000000     0          
H2       H      0.082900000000     0.396400000000     0.199400000000     0          
C9?      C      0.074600000000     0.473900000000     0.259600000000     0          
C10?     C      0.109000000000     0.481300000000     0.263400000000     0          
H4?      H      0.128100000000     0.465800000000     0.265400000000     0          
C1       C      0.167100000000     0.332900000000     0.250000000000     0          
C2       C      0.140360000000     0.359640000000     0.250000000000     0          
C5       C      0.089100000000     0.410900000000     0.250000000000     0          
C6       C      0.063900000000     0.436100000000     0.250000000000     0          
O2       O      0.779400000000     0.684800000000     0.828500000000     0          
C3       C      0.780220000000     0.633300000000     0.878400000000     0          
H1       H      0.800900000000     0.645900000000     0.873500000000     0          
C4       C      0.780080000000     0.608000000000     0.904100000000     0          
H2       H      0.800600000000     0.603600000000     0.917100000000     0          
C9?      C      0.740400000000     0.526100000000     0.925400000000     0          
C10?     C      0.736600000000     0.518700000000     0.891000000000     0          
H4?      H      0.734600000000     0.534200000000     0.871900000000     0          
C1       C      0.750000000000     0.667100000000     0.832900000000     0          
C2       C      0.750000000000     0.640360000000     0.859640000000     0          
C5       C      0.750000000000     0.589100000000     0.910900000000     0          
C6       C      0.750000000000     0.563900000000     0.936100000000     0          
O2       O      0.315200000000     0.779400000000     0.828500000000     0          
C3       C      0.366700000000     0.780220000000     0.878400000000     0          
H1       H      0.354100000000     0.800900000000     0.873500000000     0          
C4       C      0.392000000000     0.780080000000     0.904100000000     0          
H2       H      0.396400000000     0.800600000000     0.917100000000     0          
C9?      C      0.473900000000     0.740400000000     0.925400000000     0          
C10?     C      0.481300000000     0.736600000000     0.891000000000     0          
H4?      H      0.465800000000     0.734600000000     0.871900000000     0          
C1       C      0.332900000000     0.750000000000     0.832900000000     0          
C2       C      0.359640000000     0.750000000000     0.859640000000     0          
C5       C      0.410900000000     0.750000000000     0.910900000000     0          
C6       C      0.436100000000     0.750000000000     0.936100000000     0          
O2       O      0.220600000000     0.315200000000     0.828500000000     0          
C3       C      0.219780000000     0.366700000000     0.878400000000     0          
H1       H      0.199100000000     0.354100000000     0.873500000000     0          
C4       C      0.219920000000     0.392000000000     0.904100000000     0          
H2       H      0.199400000000     0.396400000000     0.917100000000     0          
C9?      C      0.259600000000     0.473900000000     0.925400000000     0          
C10?     C      0.263400000000     0.481300000000     0.891000000000     0          
H4?      H      0.265400000000     0.465800000000     0.871900000000     0          
C1       C      0.250000000000     0.332900000000     0.832900000000     0          
C2       C      0.250000000000     0.359640000000     0.859640000000     0          
C5       C      0.250000000000     0.410900000000     0.910900000000     0          
C6       C      0.250000000000     0.436100000000     0.936100000000     0          
O2       O      0.684800000000     0.220600000000     0.828500000000     0          
C3       C      0.633300000000     0.219780000000     0.878400000000     0          
H1       H      0.645900000000     0.199100000000     0.873500000000     0          
C4       C      0.608000000000     0.219920000000     0.904100000000     0          
H2       H      0.603600000000     0.199400000000     0.917100000000     0          
C9?      C      0.526100000000     0.259600000000     0.925400000000     0          
C10?     C      0.518700000000     0.263400000000     0.891000000000     0          
H4?      H      0.534200000000     0.265400000000     0.871900000000     0          
C1       C      0.667100000000     0.250000000000     0.832900000000     0          
C2       C      0.640360000000     0.250000000000     0.859640000000     0          
C5       C      0.589100000000     0.250000000000     0.910900000000     0          
C6       C      0.563900000000     0.250000000000     0.936100000000     0          
O2       O      0.779400000000     0.315200000000     0.171500000000     0          
C3       C      0.780220000000     0.366700000000     0.121600000000     0          
H1       H      0.800900000000     0.354100000000     0.126500000000     0          
C4       C      0.780080000000     0.392000000000     0.095900000000     0          
H2       H      0.800600000000     0.396400000000     0.082900000000     0          
C9?      C      0.740400000000     0.473900000000     0.074600000000     0          
C10?     C      0.736600000000     0.481300000000     0.109000000000     0          
H4?      H      0.734600000000     0.465800000000     0.128100000000     0          
C1       C      0.750000000000     0.332900000000     0.167100000000     0          
C2       C      0.750000000000     0.359640000000     0.140360000000     0          
C5       C      0.750000000000     0.410900000000     0.089100000000     0          
C6       C      0.750000000000     0.436100000000     0.063900000000     0          
O2       O      0.684800000000     0.779400000000     0.171500000000     0          
C3       C      0.633300000000     0.780220000000     0.121600000000     0          
H1       H      0.645900000000     0.800900000000     0.126500000000     0          
C4       C      0.608000000000     0.780080000000     0.095900000000     0          
H2       H      0.603600000000     0.800600000000     0.082900000000     0          
C9?      C      0.526100000000     0.740400000000     0.074600000000     0          
C10?     C      0.518700000000     0.736600000000     0.109000000000     0          
H4?      H      0.534200000000     0.734600000000     0.128100000000     0          
C1       C      0.667100000000     0.750000000000     0.167100000000     0          
C2       C      0.640360000000     0.750000000000     0.140360000000     0          
C5       C      0.589100000000     0.750000000000     0.089100000000     0          
C6       C      0.563900000000     0.750000000000     0.063900000000     0          
O2       O      0.220600000000     0.684800000000     0.171500000000     0          
C3       C      0.219780000000     0.633300000000     0.121600000000     0          
H1       H      0.199100000000     0.645900000000     0.126500000000     0          
C4       C      0.219920000000     0.608000000000     0.095900000000     0          
H2       H      0.199400000000     0.603600000000     0.082900000000     0          
C9?      C      0.259600000000     0.526100000000     0.074600000000     0          
C10?     C      0.263400000000     0.518700000000     0.109000000000     0          
H4?      H      0.265400000000     0.534200000000     0.128100000000     0          
C1       C      0.250000000000     0.667100000000     0.167100000000     0          
C2       C      0.250000000000     0.640360000000     0.140360000000     0          
C5       C      0.250000000000     0.589100000000     0.089100000000     0          
C6       C      0.250000000000     0.563900000000     0.063900000000     0          
O2       O      0.315200000000     0.220600000000     0.171500000000     0          
C3       C      0.366700000000     0.219780000000     0.121600000000     0          
H1       H      0.354100000000     0.199100000000     0.126500000000     0          
C4       C      0.392000000000     0.219920000000     0.095900000000     0          
H2       H      0.396400000000     0.199400000000     0.082900000000     0          
C9?      C      0.473900000000     0.259600000000     0.074600000000     0          
C10?     C      0.481300000000     0.263400000000     0.109000000000     0          
H4?      H      0.465800000000     0.265400000000     0.128100000000     0          
C1       C      0.332900000000     0.250000000000     0.167100000000     0          
C2       C      0.359640000000     0.250000000000     0.140360000000     0          
C5       C      0.410900000000     0.250000000000     0.089100000000     0          
C6       C      0.436100000000     0.250000000000     0.063900000000     0          
O2       O      0.828500000000     0.779400000000     0.684800000000     0          
C3       C      0.878400000000     0.780220000000     0.633300000000     0          
H1       H      0.873500000000     0.800900000000     0.645900000000     0          
C4       C      0.904100000000     0.780080000000     0.608000000000     0          
H2       H      0.917100000000     0.800600000000     0.603600000000     0          
C9?      C      0.925400000000     0.740400000000     0.526100000000     0          
C10?     C      0.891000000000     0.736600000000     0.518700000000     0          
H4?      H      0.871900000000     0.734600000000     0.534200000000     0          
C1       C      0.832900000000     0.750000000000     0.667100000000     0          
C2       C      0.859640000000     0.750000000000     0.640360000000     0          
C5       C      0.910900000000     0.750000000000     0.589100000000     0          
C6       C      0.936100000000     0.750000000000     0.563900000000     0          
O2       O      0.828500000000     0.220600000000     0.315200000000     0          
C3       C      0.878400000000     0.219780000000     0.366700000000     0          
H1       H      0.873500000000     0.199100000000     0.354100000000     0          
C4       C      0.904100000000     0.219920000000     0.392000000000     0          
H2       H      0.917100000000     0.199400000000     0.396400000000     0          
C9?      C      0.925400000000     0.259600000000     0.473900000000     0          
C10?     C      0.891000000000     0.263400000000     0.481300000000     0          
H4?      H      0.871900000000     0.265400000000     0.465800000000     0          
C1       C      0.832900000000     0.250000000000     0.332900000000     0          
C2       C      0.859640000000     0.250000000000     0.359640000000     0          
C5       C      0.910900000000     0.250000000000     0.410900000000     0          
C6       C      0.936100000000     0.250000000000     0.436100000000     0          
O2       O      0.779400000000     0.828500000000     0.315200000000     0          
C3       C      0.780220000000     0.878400000000     0.366700000000     0          
H1       H      0.800900000000     0.873500000000     0.354100000000     0          
C4       C      0.780080000000     0.904100000000     0.392000000000     0          
H2       H      0.800600000000     0.917100000000     0.396400000000     0          
C9?      C      0.740400000000     0.925400000000     0.473900000000     0          
C10?     C      0.736600000000     0.891000000000     0.481300000000     0          
H4?      H      0.734600000000     0.871900000000     0.465800000000     0          
C1       C      0.750000000000     0.832900000000     0.332900000000     0          
C2       C      0.750000000000     0.859640000000     0.359640000000     0          
C5       C      0.750000000000     0.910900000000     0.410900000000     0          
C6       C      0.750000000000     0.936100000000     0.436100000000     0          
O2       O      0.171500000000     0.779400000000     0.315200000000     0          
C3       C      0.121600000000     0.780220000000     0.366700000000     0          
H1       H      0.126500000000     0.800900000000     0.354100000000     0          
C4       C      0.095900000000     0.780080000000     0.392000000000     0          
H2       H      0.082900000000     0.800600000000     0.396400000000     0          
C9?      C      0.074600000000     0.740400000000     0.473900000000     0          
C10?     C      0.109000000000     0.736600000000     0.481300000000     0          
H4?      H      0.128100000000     0.734600000000     0.465800000000     0          
C1       C      0.167100000000     0.750000000000     0.332900000000     0          
C2       C      0.140360000000     0.750000000000     0.359640000000     0          
C5       C      0.089100000000     0.750000000000     0.410900000000     0          
C6       C      0.063900000000     0.750000000000     0.436100000000     0          
O2       O      0.220600000000     0.171500000000     0.315200000000     0          
C3       C      0.219780000000     0.121600000000     0.366700000000     0          
H1       H      0.199100000000     0.126500000000     0.354100000000     0          
C4       C      0.219920000000     0.095900000000     0.392000000000     0          
H2       H      0.199400000000     0.082900000000     0.396400000000     0          
C9?      C      0.259600000000     0.074600000000     0.473900000000     0          
C10?     C      0.263400000000     0.109000000000     0.481300000000     0          
H4?      H      0.265400000000     0.128100000000     0.465800000000     0          
C1       C      0.250000000000     0.167100000000     0.332900000000     0          
C2       C      0.250000000000     0.140360000000     0.359640000000     0          
C5       C      0.250000000000     0.089100000000     0.410900000000     0          
C6       C      0.250000000000     0.063900000000     0.436100000000     0          
O2       O      0.171500000000     0.220600000000     0.684800000000     0          
C3       C      0.121600000000     0.219780000000     0.633300000000     0          
H1       H      0.126500000000     0.199100000000     0.645900000000     0          
C4       C      0.095900000000     0.219920000000     0.608000000000     0          
H2       H      0.082900000000     0.199400000000     0.603600000000     0          
C9?      C      0.074600000000     0.259600000000     0.526100000000     0          
C10?     C      0.109000000000     0.263400000000     0.518700000000     0          
H4?      H      0.128100000000     0.265400000000     0.534200000000     0          
C1       C      0.167100000000     0.250000000000     0.667100000000     0          
C2       C      0.140360000000     0.250000000000     0.640360000000     0          
C5       C      0.089100000000     0.250000000000     0.589100000000     0          
C6       C      0.063900000000     0.250000000000     0.563900000000     0          
O2       O      0.779400000000     0.171500000000     0.684800000000     0          
C3       C      0.780220000000     0.121600000000     0.633300000000     0          
H1       H      0.800900000000     0.126500000000     0.645900000000     0          
C4       C      0.780080000000     0.095900000000     0.608000000000     0          
H2       H      0.800600000000     0.082900000000     0.603600000000     0          
C9?      C      0.740400000000     0.074600000000     0.526100000000     0          
C10?     C      0.736600000000     0.109000000000     0.518700000000     0          
H4?      H      0.734600000000     0.128100000000     0.534200000000     0          
C1       C      0.750000000000     0.167100000000     0.667100000000     0          
C2       C      0.750000000000     0.140360000000     0.640360000000     0          
C5       C      0.750000000000     0.089100000000     0.589100000000     0          
C6       C      0.750000000000     0.063900000000     0.563900000000     0          
O2       O      0.220600000000     0.828500000000     0.684800000000     0          
C3       C      0.219780000000     0.878400000000     0.633300000000     0          
H1       H      0.199100000000     0.873500000000     0.645900000000     0          
C4       C      0.219920000000     0.904100000000     0.608000000000     0          
H2       H      0.199400000000     0.917100000000     0.603600000000     0          
C9?      C      0.259600000000     0.925400000000     0.526100000000     0          
C10?     C      0.263400000000     0.891000000000     0.518700000000     0          
H4?      H      0.265400000000     0.871900000000     0.534200000000     0          
C1       C      0.250000000000     0.832900000000     0.667100000000     0          
C2       C      0.250000000000     0.859640000000     0.640360000000     0          
C5       C      0.250000000000     0.910900000000     0.589100000000     0          
C6       C      0.250000000000     0.936100000000     0.563900000000     0          
O2       O      0.815200000000     0.671500000000     0.720600000000     0          
C3       C      0.866700000000     0.621600000000     0.719780000000     0          
H1       H      0.854100000000     0.626500000000     0.699100000000     0          
C4       C      0.892000000000     0.595900000000     0.719920000000     0          
H2       H      0.896400000000     0.582900000000     0.699400000000     0          
C9?      C      0.973900000000     0.574600000000     0.759600000000     0          
C10?     C      0.981300000000     0.609000000000     0.763400000000     0          
H4?      H      0.965800000000     0.628100000000     0.765400000000     0          
Zr1      Zr     0.771740000000     0.707150000000     0.707150000000     0          
O1       O      0.798900000000     0.737900000000     0.737900000000     0          
N2?      N      0.000000000000     0.549800000000     0.756900000000     0          
O3       O      0.716530000000     0.716530000000     0.716530000000     0          
O2       O      0.328500000000     0.815200000000     0.720600000000     0          
C3       C      0.378400000000     0.866700000000     0.719780000000     0          
H1       H      0.373500000000     0.854100000000     0.699100000000     0          
C4       C      0.404100000000     0.892000000000     0.719920000000     0          
H2       H      0.417100000000     0.896400000000     0.699400000000     0          
C9?      C      0.425400000000     0.973900000000     0.759600000000     0          
C10?     C      0.391000000000     0.981300000000     0.763400000000     0          
H4?      H      0.371900000000     0.965800000000     0.765400000000     0          
Zr1      Zr     0.292850000000     0.771740000000     0.707150000000     0          
O1       O      0.262100000000     0.798900000000     0.737900000000     0          
N2?      N      0.450200000000     0.000000000000     0.756900000000     0          
O3       O      0.283470000000     0.716530000000     0.716530000000     0          
O2       O      0.184800000000     0.328500000000     0.720600000000     0          
C3       C      0.133300000000     0.378400000000     0.719780000000     0          
H1       H      0.145900000000     0.373500000000     0.699100000000     0          
C4       C      0.108000000000     0.404100000000     0.719920000000     0          
H2       H      0.103600000000     0.417100000000     0.699400000000     0          
C9?      C      0.026100000000     0.425400000000     0.759600000000     0          
C10?     C      0.018700000000     0.391000000000     0.763400000000     0          
H4?      H      0.034200000000     0.371900000000     0.765400000000     0          
Zr1      Zr     0.228260000000     0.292850000000     0.707150000000     0          
O1       O      0.201100000000     0.262100000000     0.737900000000     0          
N2?      N      0.000000000000     0.450200000000     0.756900000000     0          
O3       O      0.283470000000     0.283470000000     0.716530000000     0          
O2       O      0.671500000000     0.184800000000     0.720600000000     0          
C3       C      0.621600000000     0.133300000000     0.719780000000     0          
H1       H      0.626500000000     0.145900000000     0.699100000000     0          
C4       C      0.595900000000     0.108000000000     0.719920000000     0          
H2       H      0.582900000000     0.103600000000     0.699400000000     0          
C9?      C      0.574600000000     0.026100000000     0.759600000000     0          
C10?     C      0.609000000000     0.018700000000     0.763400000000     0          
H4?      H      0.628100000000     0.034200000000     0.765400000000     0          
Zr1      Zr     0.707150000000     0.228260000000     0.707150000000     0          
O1       O      0.737900000000     0.201100000000     0.737900000000     0          
N2?      N      0.549800000000     0.000000000000     0.756900000000     0          
O3       O      0.716530000000     0.283470000000     0.716530000000     0          
O2       O      0.815200000000     0.328500000000     0.279400000000     0          
C3       C      0.866700000000     0.378400000000     0.280220000000     0          
H1       H      0.854100000000     0.373500000000     0.300900000000     0          
C4       C      0.892000000000     0.404100000000     0.280080000000     0          
H2       H      0.896400000000     0.417100000000     0.300600000000     0          
C9?      C      0.973900000000     0.425400000000     0.240400000000     0          
C10?     C      0.981300000000     0.391000000000     0.236600000000     0          
H4?      H      0.965800000000     0.371900000000     0.234600000000     0          
Zr1      Zr     0.771740000000     0.292850000000     0.292850000000     0          
O1       O      0.798900000000     0.262100000000     0.262100000000     0          
N2?      N      0.000000000000     0.450200000000     0.243100000000     0          
O3       O      0.716530000000     0.283470000000     0.283470000000     0          
O2       O      0.671500000000     0.815200000000     0.279400000000     0          
C3       C      0.621600000000     0.866700000000     0.280220000000     0          
H1       H      0.626500000000     0.854100000000     0.300900000000     0          
C4       C      0.595900000000     0.892000000000     0.280080000000     0          
H2       H      0.582900000000     0.896400000000     0.300600000000     0          
C9?      C      0.574600000000     0.973900000000     0.240400000000     0          
C10?     C      0.609000000000     0.981300000000     0.236600000000     0          
H4?      H      0.628100000000     0.965800000000     0.234600000000     0          
Zr1      Zr     0.707150000000     0.771740000000     0.292850000000     0          
O1       O      0.737900000000     0.798900000000     0.262100000000     0          
N2?      N      0.549800000000     0.000000000000     0.243100000000     0          
O3       O      0.716530000000     0.716530000000     0.283470000000     0          
O2       O      0.184800000000     0.671500000000     0.279400000000     0          
C3       C      0.133300000000     0.621600000000     0.280220000000     0          
H1       H      0.145900000000     0.626500000000     0.300900000000     0          
C4       C      0.108000000000     0.595900000000     0.280080000000     0          
H2       H      0.103600000000     0.582900000000     0.300600000000     0          
C9?      C      0.026100000000     0.574600000000     0.240400000000     0          
C10?     C      0.018700000000     0.609000000000     0.236600000000     0          
H4?      H      0.034200000000     0.628100000000     0.234600000000     0          
Zr1      Zr     0.228260000000     0.707150000000     0.292850000000     0          
O1       O      0.201100000000     0.737900000000     0.262100000000     0          
N2?      N      0.000000000000     0.549800000000     0.243100000000     0          
O3       O      0.283470000000     0.716530000000     0.283470000000     0          
O2       O      0.328500000000     0.184800000000     0.279400000000     0          
C3       C      0.378400000000     0.133300000000     0.280220000000     0          
H1       H      0.373500000000     0.145900000000     0.300900000000     0          
C4       C      0.404100000000     0.108000000000     0.280080000000     0          
H2       H      0.417100000000     0.103600000000     0.300600000000     0          
C9?      C      0.425400000000     0.026100000000     0.240400000000     0          
C10?     C      0.391000000000     0.018700000000     0.236600000000     0          
H4?      H      0.371900000000     0.034200000000     0.234600000000     0          
Zr1      Zr     0.292850000000     0.228260000000     0.292850000000     0          
O1       O      0.262100000000     0.201100000000     0.262100000000     0          
N2?      N      0.450200000000     0.000000000000     0.243100000000     0          
O3       O      0.283470000000     0.283470000000     0.283470000000     0          
O2       O      0.720600000000     0.815200000000     0.671500000000     0          
C3       C      0.719780000000     0.866700000000     0.621600000000     0          
H1       H      0.699100000000     0.854100000000     0.626500000000     0          
C4       C      0.719920000000     0.892000000000     0.595900000000     0          
H2       H      0.699400000000     0.896400000000     0.582900000000     0          
C9?      C      0.759600000000     0.973900000000     0.574600000000     0          
C10?     C      0.763400000000     0.981300000000     0.609000000000     0          
H4?      H      0.765400000000     0.965800000000     0.628100000000     0          
Zr1      Zr     0.707150000000     0.771740000000     0.707150000000     0          
O1       O      0.737900000000     0.798900000000     0.737900000000     0          
N2?      N      0.756900000000     0.000000000000     0.549800000000     0          
O2       O      0.184800000000     0.720600000000     0.671500000000     0          
C3       C      0.133300000000     0.719780000000     0.621600000000     0          
H1       H      0.145900000000     0.699100000000     0.626500000000     0          
C4       C      0.108000000000     0.719920000000     0.595900000000     0          
H2       H      0.103600000000     0.699400000000     0.582900000000     0          
C9?      C      0.026100000000     0.759600000000     0.574600000000     0          
C10?     C      0.018700000000     0.763400000000     0.609000000000     0          
H4?      H      0.034200000000     0.765400000000     0.628100000000     0          
Zr1      Zr     0.228260000000     0.707150000000     0.707150000000     0          
O1       O      0.201100000000     0.737900000000     0.737900000000     0          
N2?      N      0.000000000000     0.756900000000     0.549800000000     0          
O2       O      0.279400000000     0.184800000000     0.671500000000     0          
C3       C      0.280220000000     0.133300000000     0.621600000000     0          
H1       H      0.300900000000     0.145900000000     0.626500000000     0          
C4       C      0.280080000000     0.108000000000     0.595900000000     0          
H2       H      0.300600000000     0.103600000000     0.582900000000     0          
C9?      C      0.240400000000     0.026100000000     0.574600000000     0          
C10?     C      0.236600000000     0.018700000000     0.609000000000     0          
H4?      H      0.234600000000     0.034200000000     0.628100000000     0          
Zr1      Zr     0.292850000000     0.228260000000     0.707150000000     0          
O1       O      0.262100000000     0.201100000000     0.737900000000     0          
N2?      N      0.243100000000     0.000000000000     0.549800000000     0          
O2       O      0.815200000000     0.279400000000     0.671500000000     0          
C3       C      0.866700000000     0.280220000000     0.621600000000     0          
H1       H      0.854100000000     0.300900000000     0.626500000000     0          
C4       C      0.892000000000     0.280080000000     0.595900000000     0          
H2       H      0.896400000000     0.300600000000     0.582900000000     0          
C9?      C      0.973900000000     0.240400000000     0.574600000000     0          
C10?     C      0.981300000000     0.236600000000     0.609000000000     0          
H4?      H      0.965800000000     0.234600000000     0.628100000000     0          
Zr1      Zr     0.771740000000     0.292850000000     0.707150000000     0          
O1       O      0.798900000000     0.262100000000     0.737900000000     0          
N2?      N      0.000000000000     0.243100000000     0.549800000000     0          
O2       O      0.720600000000     0.184800000000     0.328500000000     0          
C3       C      0.719780000000     0.133300000000     0.378400000000     0          
H1       H      0.699100000000     0.145900000000     0.373500000000     0          
C4       C      0.719920000000     0.108000000000     0.404100000000     0          
H2       H      0.699400000000     0.103600000000     0.417100000000     0          
C9?      C      0.759600000000     0.026100000000     0.425400000000     0          
C10?     C      0.763400000000     0.018700000000     0.391000000000     0          
H4?      H      0.765400000000     0.034200000000     0.371900000000     0          
Zr1      Zr     0.707150000000     0.228260000000     0.292850000000     0          
O1       O      0.737900000000     0.201100000000     0.262100000000     0          
N2?      N      0.756900000000     0.000000000000     0.450200000000     0          
O2       O      0.815200000000     0.720600000000     0.328500000000     0          
C3       C      0.866700000000     0.719780000000     0.378400000000     0          
H1       H      0.854100000000     0.699100000000     0.373500000000     0          
C4       C      0.892000000000     0.719920000000     0.404100000000     0          
H2       H      0.896400000000     0.699400000000     0.417100000000     0          
C9?      C      0.973900000000     0.759600000000     0.425400000000     0          
C10?     C      0.981300000000     0.763400000000     0.391000000000     0          
H4?      H      0.965800000000     0.765400000000     0.371900000000     0          
Zr1      Zr     0.771740000000     0.707150000000     0.292850000000     0          
O1       O      0.798900000000     0.737900000000     0.262100000000     0          
N2?      N      0.000000000000     0.756900000000     0.450200000000     0          
O2       O      0.279400000000     0.815200000000     0.328500000000     0          
C3       C      0.280220000000     0.866700000000     0.378400000000     0          
H1       H      0.300900000000     0.854100000000     0.373500000000     0          
C4       C      0.280080000000     0.892000000000     0.404100000000     0          
H2       H      0.300600000000     0.896400000000     0.417100000000     0          
C9?      C      0.240400000000     0.973900000000     0.425400000000     0          
C10?     C      0.236600000000     0.981300000000     0.391000000000     0          
H4?      H      0.234600000000     0.965800000000     0.371900000000     0          
Zr1      Zr     0.292850000000     0.771740000000     0.292850000000     0          
O1       O      0.262100000000     0.798900000000     0.262100000000     0          
N2?      N      0.243100000000     0.000000000000     0.450200000000     0          
O2       O      0.184800000000     0.279400000000     0.328500000000     0          
C3       C      0.133300000000     0.280220000000     0.378400000000     0          
H1       H      0.145900000000     0.300900000000     0.373500000000     0          
C4       C      0.108000000000     0.280080000000     0.404100000000     0          
H2       H      0.103600000000     0.300600000000     0.417100000000     0          
C9?      C      0.026100000000     0.240400000000     0.425400000000     0          
C10?     C      0.018700000000     0.236600000000     0.391000000000     0          
H4?      H      0.034200000000     0.234600000000     0.371900000000     0          
Zr1      Zr     0.228260000000     0.292850000000     0.292850000000     0          
O1       O      0.201100000000     0.262100000000     0.262100000000     0          
N2?      N      0.000000000000     0.243100000000     0.450200000000     0          
O2       O      0.671500000000     0.720600000000     0.815200000000     0          
C3       C      0.621600000000     0.719780000000     0.866700000000     0          
H1       H      0.626500000000     0.699100000000     0.854100000000     0          
C4       C      0.595900000000     0.719920000000     0.892000000000     0          
H2       H      0.582900000000     0.699400000000     0.896400000000     0          
C9?      C      0.574600000000     0.759600000000     0.973900000000     0          
C10?     C      0.609000000000     0.763400000000     0.981300000000     0          
H4?      H      0.628100000000     0.765400000000     0.965800000000     0          
Zr1      Zr     0.707150000000     0.707150000000     0.771740000000     0          
O1       O      0.737900000000     0.737900000000     0.798900000000     0          
N2?      N      0.549800000000     0.756900000000     0.000000000000     0          
O2       O      0.671500000000     0.279400000000     0.184800000000     0          
C3       C      0.621600000000     0.280220000000     0.133300000000     0          
H1       H      0.626500000000     0.300900000000     0.145900000000     0          
C4       C      0.595900000000     0.280080000000     0.108000000000     0          
H2       H      0.582900000000     0.300600000000     0.103600000000     0          
C9?      C      0.574600000000     0.240400000000     0.026100000000     0          
C10?     C      0.609000000000     0.236600000000     0.018700000000     0          
H4?      H      0.628100000000     0.234600000000     0.034200000000     0          
Zr1      Zr     0.707150000000     0.292850000000     0.228260000000     0          
O1       O      0.737900000000     0.262100000000     0.201100000000     0          
N2?      N      0.549800000000     0.243100000000     0.000000000000     0          
O2       O      0.720600000000     0.671500000000     0.184800000000     0          
C3       C      0.719780000000     0.621600000000     0.133300000000     0          
H1       H      0.699100000000     0.626500000000     0.145900000000     0          
C4       C      0.719920000000     0.595900000000     0.108000000000     0          
H2       H      0.699400000000     0.582900000000     0.103600000000     0          
C9?      C      0.759600000000     0.574600000000     0.026100000000     0          
C10?     C      0.763400000000     0.609000000000     0.018700000000     0          
H4?      H      0.765400000000     0.628100000000     0.034200000000     0          
Zr1      Zr     0.707150000000     0.707150000000     0.228260000000     0          
O1       O      0.737900000000     0.737900000000     0.201100000000     0          
N2?      N      0.756900000000     0.549800000000     0.000000000000     0          
O2       O      0.328500000000     0.720600000000     0.184800000000     0          
C3       C      0.378400000000     0.719780000000     0.133300000000     0          
H1       H      0.373500000000     0.699100000000     0.145900000000     0          
C4       C      0.404100000000     0.719920000000     0.108000000000     0          
H2       H      0.417100000000     0.699400000000     0.103600000000     0          
C9?      C      0.425400000000     0.759600000000     0.026100000000     0          
C10?     C      0.391000000000     0.763400000000     0.018700000000     0          
H4?      H      0.371900000000     0.765400000000     0.034200000000     0          
Zr1      Zr     0.292850000000     0.707150000000     0.228260000000     0          
O1       O      0.262100000000     0.737900000000     0.201100000000     0          
N2?      N      0.450200000000     0.756900000000     0.000000000000     0          
O2       O      0.279400000000     0.328500000000     0.184800000000     0          
C3       C      0.280220000000     0.378400000000     0.133300000000     0          
H1       H      0.300900000000     0.373500000000     0.145900000000     0          
C4       C      0.280080000000     0.404100000000     0.108000000000     0          
H2       H      0.300600000000     0.417100000000     0.103600000000     0          
C9?      C      0.240400000000     0.425400000000     0.026100000000     0          
C10?     C      0.236600000000     0.391000000000     0.018700000000     0          
H4?      H      0.234600000000     0.371900000000     0.034200000000     0          
Zr1      Zr     0.292850000000     0.292850000000     0.228260000000     0          
O1       O      0.262100000000     0.262100000000     0.201100000000     0          
N2?      N      0.243100000000     0.450200000000     0.000000000000     0          
O2       O      0.328500000000     0.279400000000     0.815200000000     0          
C3       C      0.378400000000     0.280220000000     0.866700000000     0          
H1       H      0.373500000000     0.300900000000     0.854100000000     0          
C4       C      0.404100000000     0.280080000000     0.892000000000     0          
H2       H      0.417100000000     0.300600000000     0.896400000000     0          
C9?      C      0.425400000000     0.240400000000     0.973900000000     0          
C10?     C      0.391000000000     0.236600000000     0.981300000000     0          
H4?      H      0.371900000000     0.234600000000     0.965800000000     0          
Zr1      Zr     0.292850000000     0.292850000000     0.771740000000     0          
O1       O      0.262100000000     0.262100000000     0.798900000000     0          
N2?      N      0.450200000000     0.243100000000     0.000000000000     0          
O2       O      0.720600000000     0.328500000000     0.815200000000     0          
C3       C      0.719780000000     0.378400000000     0.866700000000     0          
H1       H      0.699100000000     0.373500000000     0.854100000000     0          
C4       C      0.719920000000     0.404100000000     0.892000000000     0          
H2       H      0.699400000000     0.417100000000     0.896400000000     0          
C9?      C      0.759600000000     0.425400000000     0.973900000000     0          
C10?     C      0.763400000000     0.391000000000     0.981300000000     0          
H4?      H      0.765400000000     0.371900000000     0.965800000000     0          
Zr1      Zr     0.707150000000     0.292850000000     0.771740000000     0          
O1       O      0.737900000000     0.262100000000     0.798900000000     0          
N2?      N      0.756900000000     0.450200000000     0.000000000000     0          
O2       O      0.279400000000     0.671500000000     0.815200000000     0          
C3       C      0.280220000000     0.621600000000     0.866700000000     0          
H1       H      0.300900000000     0.626500000000     0.854100000000     0          
C4       C      0.280080000000     0.595900000000     0.892000000000     0          
H2       H      0.300600000000     0.582900000000     0.896400000000     0          
C9?      C      0.240400000000     0.574600000000     0.973900000000     0          
C10?     C      0.236600000000     0.609000000000     0.981300000000     0          
H4?      H      0.234600000000     0.628100000000     0.965800000000     0          
Zr1      Zr     0.292850000000     0.707150000000     0.771740000000     0          
O1       O      0.262100000000     0.737900000000     0.798900000000     0          
N2?      N      0.243100000000     0.549800000000     0.000000000000     0          
O2       O      0.184800000000     0.328500000000     0.279400000000     0          
C3       C      0.133300000000     0.378400000000     0.280220000000     0          
H1       H      0.145900000000     0.373500000000     0.300900000000     0          
C4       C      0.108000000000     0.404100000000     0.280080000000     0          
H2       H      0.103600000000     0.417100000000     0.300600000000     0          
C9?      C      0.026100000000     0.425400000000     0.240400000000     0          
C10?     C      0.018700000000     0.391000000000     0.236600000000     0          
H4?      H      0.034200000000     0.371900000000     0.234600000000     0          
O2       O      0.671500000000     0.184800000000     0.279400000000     0          
C3       C      0.621600000000     0.133300000000     0.280220000000     0          
H1       H      0.626500000000     0.145900000000     0.300900000000     0          
C4       C      0.595900000000     0.108000000000     0.280080000000     0          
H2       H      0.582900000000     0.103600000000     0.300600000000     0          
C9?      C      0.574600000000     0.026100000000     0.240400000000     0          
C10?     C      0.609000000000     0.018700000000     0.236600000000     0          
H4?      H      0.628100000000     0.034200000000     0.234600000000     0          
O2       O      0.815200000000     0.671500000000     0.279400000000     0          
C3       C      0.866700000000     0.621600000000     0.280220000000     0          
H1       H      0.854100000000     0.626500000000     0.300900000000     0          
C4       C      0.892000000000     0.595900000000     0.280080000000     0          
H2       H      0.896400000000     0.582900000000     0.300600000000     0          
C9?      C      0.973900000000     0.574600000000     0.240400000000     0          
C10?     C      0.981300000000     0.609000000000     0.236600000000     0          
H4?      H      0.965800000000     0.628100000000     0.234600000000     0          
O2       O      0.328500000000     0.815200000000     0.279400000000     0          
C3       C      0.378400000000     0.866700000000     0.280220000000     0          
H1       H      0.373500000000     0.854100000000     0.300900000000     0          
C4       C      0.404100000000     0.892000000000     0.280080000000     0          
H2       H      0.417100000000     0.896400000000     0.300600000000     0          
C9?      C      0.425400000000     0.973900000000     0.240400000000     0          
C10?     C      0.391000000000     0.981300000000     0.236600000000     0          
H4?      H      0.371900000000     0.965800000000     0.234600000000     0          
O2       O      0.184800000000     0.671500000000     0.720600000000     0          
C3       C      0.133300000000     0.621600000000     0.719780000000     0          
H1       H      0.145900000000     0.626500000000     0.699100000000     0          
C4       C      0.108000000000     0.595900000000     0.719920000000     0          
H2       H      0.103600000000     0.582900000000     0.699400000000     0          
C9?      C      0.026100000000     0.574600000000     0.759600000000     0          
C10?     C      0.018700000000     0.609000000000     0.763400000000     0          
H4?      H      0.034200000000     0.628100000000     0.765400000000     0          
O2       O      0.328500000000     0.184800000000     0.720600000000     0          
C3       C      0.378400000000     0.133300000000     0.719780000000     0          
H1       H      0.373500000000     0.145900000000     0.699100000000     0          
C4       C      0.404100000000     0.108000000000     0.719920000000     0          
H2       H      0.417100000000     0.103600000000     0.699400000000     0          
C9?      C      0.425400000000     0.026100000000     0.759600000000     0          
C10?     C      0.391000000000     0.018700000000     0.763400000000     0          
H4?      H      0.371900000000     0.034200000000     0.765400000000     0          
O2       O      0.815200000000     0.328500000000     0.720600000000     0          
C3       C      0.866700000000     0.378400000000     0.719780000000     0          
H1       H      0.854100000000     0.373500000000     0.699100000000     0          
C4       C      0.892000000000     0.404100000000     0.719920000000     0          
H2       H      0.896400000000     0.417100000000     0.699400000000     0          
C9?      C      0.973900000000     0.425400000000     0.759600000000     0          
C10?     C      0.981300000000     0.391000000000     0.763400000000     0          
H4?      H      0.965800000000     0.371900000000     0.765400000000     0          
O2       O      0.671500000000     0.815200000000     0.720600000000     0          
C3       C      0.621600000000     0.866700000000     0.719780000000     0          
H1       H      0.626500000000     0.854100000000     0.699100000000     0          
C4       C      0.595900000000     0.892000000000     0.719920000000     0          
H2       H      0.582900000000     0.896400000000     0.699400000000     0          
C9?      C      0.574600000000     0.973900000000     0.759600000000     0          
C10?     C      0.609000000000     0.981300000000     0.763400000000     0          
H4?      H      0.628100000000     0.965800000000     0.765400000000     0          
O2       O      0.279400000000     0.184800000000     0.328500000000     0          
C3       C      0.280220000000     0.133300000000     0.378400000000     0          
H1       H      0.300900000000     0.145900000000     0.373500000000     0          
C4       C      0.280080000000     0.108000000000     0.404100000000     0          
H2       H      0.300600000000     0.103600000000     0.417100000000     0          
C9?      C      0.240400000000     0.026100000000     0.425400000000     0          
C10?     C      0.236600000000     0.018700000000     0.391000000000     0          
H4?      H      0.234600000000     0.034200000000     0.371900000000     0          
O2       O      0.815200000000     0.279400000000     0.328500000000     0          
C3       C      0.866700000000     0.280220000000     0.378400000000     0          
H1       H      0.854100000000     0.300900000000     0.373500000000     0          
C4       C      0.892000000000     0.280080000000     0.404100000000     0          
H2       H      0.896400000000     0.300600000000     0.417100000000     0          
C9?      C      0.973900000000     0.240400000000     0.425400000000     0          
C10?     C      0.981300000000     0.236600000000     0.391000000000     0          
H4?      H      0.965800000000     0.234600000000     0.371900000000     0          
O2       O      0.720600000000     0.815200000000     0.328500000000     0          
C3       C      0.719780000000     0.866700000000     0.378400000000     0          
H1       H      0.699100000000     0.854100000000     0.373500000000     0          
C4       C      0.719920000000     0.892000000000     0.404100000000     0          
H2       H      0.699400000000     0.896400000000     0.417100000000     0          
C9?      C      0.759600000000     0.973900000000     0.425400000000     0          
C10?     C      0.763400000000     0.981300000000     0.391000000000     0          
H4?      H      0.765400000000     0.965800000000     0.371900000000     0          
O2       O      0.184800000000     0.720600000000     0.328500000000     0          
C3       C      0.133300000000     0.719780000000     0.378400000000     0          
H1       H      0.145900000000     0.699100000000     0.373500000000     0          
C4       C      0.108000000000     0.719920000000     0.404100000000     0          
H2       H      0.103600000000     0.699400000000     0.417100000000     0          
C9?      C      0.026100000000     0.759600000000     0.425400000000     0          
C10?     C      0.018700000000     0.763400000000     0.391000000000     0          
H4?      H      0.034200000000     0.765400000000     0.371900000000     0          
O2       O      0.279400000000     0.815200000000     0.671500000000     0          
C3       C      0.280220000000     0.866700000000     0.621600000000     0          
H1       H      0.300900000000     0.854100000000     0.626500000000     0          
C4       C      0.280080000000     0.892000000000     0.595900000000     0          
H2       H      0.300600000000     0.896400000000     0.582900000000     0          
C9?      C      0.240400000000     0.973900000000     0.574600000000     0          
C10?     C      0.236600000000     0.981300000000     0.609000000000     0          
H4?      H      0.234600000000     0.965800000000     0.628100000000     0          
O2       O      0.184800000000     0.279400000000     0.671500000000     0          
C3       C      0.133300000000     0.280220000000     0.621600000000     0          
H1       H      0.145900000000     0.300900000000     0.626500000000     0          
C4       C      0.108000000000     0.280080000000     0.595900000000     0          
H2       H      0.103600000000     0.300600000000     0.582900000000     0          
C9?      C      0.026100000000     0.240400000000     0.574600000000     0          
C10?     C      0.018700000000     0.236600000000     0.609000000000     0          
H4?      H      0.034200000000     0.234600000000     0.628100000000     0          
O2       O      0.720600000000     0.184800000000     0.671500000000     0          
C3       C      0.719780000000     0.133300000000     0.621600000000     0          
H1       H      0.699100000000     0.145900000000     0.626500000000     0          
C4       C      0.719920000000     0.108000000000     0.595900000000     0          
H2       H      0.699400000000     0.103600000000     0.582900000000     0          
C9?      C      0.759600000000     0.026100000000     0.574600000000     0          
C10?     C      0.763400000000     0.018700000000     0.609000000000     0          
H4?      H      0.765400000000     0.034200000000     0.628100000000     0          
O2       O      0.815200000000     0.720600000000     0.671500000000     0          
C3       C      0.866700000000     0.719780000000     0.621600000000     0          
H1       H      0.854100000000     0.699100000000     0.626500000000     0          
C4       C      0.892000000000     0.719920000000     0.595900000000     0          
H2       H      0.896400000000     0.699400000000     0.582900000000     0          
C9?      C      0.973900000000     0.759600000000     0.574600000000     0          
C10?     C      0.981300000000     0.763400000000     0.609000000000     0          
H4?      H      0.965800000000     0.765400000000     0.628100000000     0          
O2       O      0.328500000000     0.279400000000     0.184800000000     0          
C3       C      0.378400000000     0.280220000000     0.133300000000     0          
H1       H      0.373500000000     0.300900000000     0.145900000000     0          
C4       C      0.404100000000     0.280080000000     0.108000000000     0          
H2       H      0.417100000000     0.300600000000     0.103600000000     0          
C9?      C      0.425400000000     0.240400000000     0.026100000000     0          
C10?     C      0.391000000000     0.236600000000     0.018700000000     0          
H4?      H      0.371900000000     0.234600000000     0.034200000000     0          
O2       O      0.328500000000     0.720600000000     0.815200000000     0          
C3       C      0.378400000000     0.719780000000     0.866700000000     0          
H1       H      0.373500000000     0.699100000000     0.854100000000     0          
C4       C      0.404100000000     0.719920000000     0.892000000000     0          
H2       H      0.417100000000     0.699400000000     0.896400000000     0          
C9?      C      0.425400000000     0.759600000000     0.973900000000     0          
C10?     C      0.391000000000     0.763400000000     0.981300000000     0          
H4?      H      0.371900000000     0.765400000000     0.965800000000     0          
O2       O      0.279400000000     0.328500000000     0.815200000000     0          
C3       C      0.280220000000     0.378400000000     0.866700000000     0          
H1       H      0.300900000000     0.373500000000     0.854100000000     0          
C4       C      0.280080000000     0.404100000000     0.892000000000     0          
H2       H      0.300600000000     0.417100000000     0.896400000000     0          
C9?      C      0.240400000000     0.425400000000     0.973900000000     0          
C10?     C      0.236600000000     0.391000000000     0.981300000000     0          
H4?      H      0.234600000000     0.371900000000     0.965800000000     0          
O2       O      0.671500000000     0.279400000000     0.815200000000     0          
C3       C      0.621600000000     0.280220000000     0.866700000000     0          
H1       H      0.626500000000     0.300900000000     0.854100000000     0          
C4       C      0.595900000000     0.280080000000     0.892000000000     0          
H2       H      0.582900000000     0.300600000000     0.896400000000     0          
C9?      C      0.574600000000     0.240400000000     0.973900000000     0          
C10?     C      0.609000000000     0.236600000000     0.981300000000     0          
H4?      H      0.628100000000     0.234600000000     0.965800000000     0          
O2       O      0.720600000000     0.671500000000     0.815200000000     0          
C3       C      0.719780000000     0.621600000000     0.866700000000     0          
H1       H      0.699100000000     0.626500000000     0.854100000000     0          
C4       C      0.719920000000     0.595900000000     0.892000000000     0          
H2       H      0.699400000000     0.582900000000     0.896400000000     0          
C9?      C      0.759600000000     0.574600000000     0.973900000000     0          
C10?     C      0.763400000000     0.609000000000     0.981300000000     0          
H4?      H      0.765400000000     0.628100000000     0.965800000000     0          
O2       O      0.671500000000     0.720600000000     0.184800000000     0          
C3       C      0.621600000000     0.719780000000     0.133300000000     0          
H1       H      0.626500000000     0.699100000000     0.145900000000     0          
C4       C      0.595900000000     0.719920000000     0.108000000000     0          
H2       H      0.582900000000     0.699400000000     0.103600000000     0          
C9?      C      0.574600000000     0.759600000000     0.026100000000     0          
C10?     C      0.609000000000     0.763400000000     0.018700000000     0          
H4?      H      0.628100000000     0.765400000000     0.034200000000     0          
O2       O      0.279400000000     0.671500000000     0.184800000000     0          
C3       C      0.280220000000     0.621600000000     0.133300000000     0          
H1       H      0.300900000000     0.626500000000     0.145900000000     0          
C4       C      0.280080000000     0.595900000000     0.108000000000     0          
H2       H      0.300600000000     0.582900000000     0.103600000000     0          
C9?      C      0.240400000000     0.574600000000     0.026100000000     0          
C10?     C      0.236600000000     0.609000000000     0.018700000000     0          
H4?      H      0.234600000000     0.628100000000     0.034200000000     0          
O2       O      0.720600000000     0.328500000000     0.184800000000     0          
C3       C      0.719780000000     0.378400000000     0.133300000000     0          
H1       H      0.699100000000     0.373500000000     0.145900000000     0          
C4       C      0.719920000000     0.404100000000     0.108000000000     0          
H2       H      0.699400000000     0.417100000000     0.103600000000     0          
C9?      C      0.759600000000     0.425400000000     0.026100000000     0          
C10?     C      0.763400000000     0.391000000000     0.018700000000     0          
H4?      H      0.765400000000     0.371900000000     0.034200000000     0          


