data_DORLAZ

_audit_creation_method RASPA-1.0
_audit_creation_date 2020-11-2
_audit_author_name 'Rocio Bueno-Perez'

_cell_length_a    32.6205
_cell_length_b    32.6205
_cell_length_c    32.6205
_cell_angle_alpha 90
_cell_angle_beta  90
_cell_angle_gamma 90
_cell_volume      34711.4

_symmetry_cell_setting          triclinic
_symmetry_space_group_name_Hall 'P 1'
_symmetry_space_group_name_H-M  'P 1'
_symmetry_Int_Tables_number     1

_symmetry_equiv_pos_as_xyz 'x,y,z'

loop_
_atom_site_label
_atom_site_type_symbol
_atom_site_fract_x
_atom_site_fract_y
_atom_site_fract_z
_atom_site_charge
C1       C      0.468800000000     0.783600000000     0.257500000000     0          
H2       H      0.450500000000     0.806200000000     0.259100000000     0          
C3       C      0.468800000000     0.283600000000     0.757500000000     0          
H4       H      0.450500000000     0.306200000000     0.759100000000     0          
C5       C      0.968800000000     0.783600000000     0.757500000000     0          
H6       H      0.950500000000     0.806200000000     0.759100000000     0          
C7       C      0.531200000000     0.716400000000     0.757500000000     0          
H8       H      0.549500000000     0.693800000000     0.759100000000     0          
C9       C      0.031200000000     0.216400000000     0.757500000000     0          
H10      H      0.049500000000     0.193800000000     0.759100000000     0          
C11      C      0.531200000000     0.283600000000     0.242500000000     0          
H12      H      0.549500000000     0.306200000000     0.240900000000     0          
C13      C      0.031200000000     0.783600000000     0.242500000000     0          
H14      H      0.049500000000     0.806200000000     0.240900000000     0          
C15      C      0.968800000000     0.216400000000     0.242500000000     0          
H16      H      0.950500000000     0.193800000000     0.240900000000     0          
C17      C      0.257500000000     0.468800000000     0.783600000000     0          
H18      H      0.259100000000     0.450500000000     0.806200000000     0          
C19      C      0.757500000000     0.468800000000     0.283600000000     0          
H20      H      0.759100000000     0.450500000000     0.306200000000     0          
C21      C      0.757500000000     0.968800000000     0.783600000000     0          
H22      H      0.759100000000     0.950500000000     0.806200000000     0          
C23      C      0.257500000000     0.531200000000     0.216400000000     0          
H24      H      0.259100000000     0.549500000000     0.193800000000     0          
C25      C      0.757500000000     0.031200000000     0.216400000000     0          
H26      H      0.759100000000     0.049500000000     0.193800000000     0          
C27      C      0.742500000000     0.531200000000     0.783600000000     0          
H28      H      0.740900000000     0.549500000000     0.806200000000     0          
C29      C      0.242500000000     0.031200000000     0.783600000000     0          
H30      H      0.240900000000     0.049500000000     0.806200000000     0          
C31      C      0.242500000000     0.968800000000     0.216400000000     0          
H32      H      0.240900000000     0.950500000000     0.193800000000     0          
C33      C      0.783600000000     0.257500000000     0.468800000000     0          
H34      H      0.806200000000     0.259100000000     0.450500000000     0          
C35      C      0.783600000000     0.757500000000     0.968800000000     0          
H36      H      0.806200000000     0.759100000000     0.950500000000     0          
C37      C      0.216400000000     0.257500000000     0.531200000000     0          
H38      H      0.193800000000     0.259100000000     0.549500000000     0          
C39      C      0.716400000000     0.257500000000     0.031200000000     0          
H40      H      0.693800000000     0.259100000000     0.049500000000     0          
C41      C      0.716400000000     0.757500000000     0.531200000000     0          
H42      H      0.693800000000     0.759100000000     0.549500000000     0          
C43      C      0.283600000000     0.742500000000     0.031200000000     0          
H44      H      0.306200000000     0.740900000000     0.049500000000     0          
C45      C      0.216400000000     0.742500000000     0.468800000000     0          
H46      H      0.193800000000     0.740900000000     0.450500000000     0          
C47      C      0.216400000000     0.242500000000     0.968800000000     0          
H48      H      0.193800000000     0.240900000000     0.950500000000     0          
C49      C      0.783600000000     0.468800000000     0.742500000000     0          
H50      H      0.806200000000     0.450500000000     0.740900000000     0          
C51      C      0.283600000000     0.968800000000     0.742500000000     0          
H52      H      0.306200000000     0.950500000000     0.740900000000     0          
C53      C      0.216400000000     0.531200000000     0.742500000000     0          
H54      H      0.193800000000     0.549500000000     0.740900000000     0          
C55      C      0.716400000000     0.531200000000     0.242500000000     0          
H56      H      0.693800000000     0.549500000000     0.240900000000     0          
C57      C      0.716400000000     0.031200000000     0.742500000000     0          
H58      H      0.693800000000     0.049500000000     0.740900000000     0          
C59      C      0.283600000000     0.031200000000     0.257500000000     0          
H60      H      0.306200000000     0.049500000000     0.259100000000     0          
C61      C      0.216400000000     0.468800000000     0.257500000000     0          
H62      H      0.193800000000     0.450500000000     0.259100000000     0          
C63      C      0.716400000000     0.968800000000     0.257500000000     0          
H64      H      0.693800000000     0.950500000000     0.259100000000     0          
C65      C      0.468800000000     0.757500000000     0.716400000000     0          
H66      H      0.450500000000     0.759100000000     0.693800000000     0          
C67      C      0.968800000000     0.257500000000     0.716400000000     0          
H68      H      0.950500000000     0.259100000000     0.693800000000     0          
C69      C      0.031200000000     0.257500000000     0.283600000000     0          
H70      H      0.049500000000     0.259100000000     0.306200000000     0          
C71      C      0.531200000000     0.742500000000     0.216400000000     0          
H72      H      0.549500000000     0.740900000000     0.193800000000     0          
C73      C      0.531200000000     0.242500000000     0.716400000000     0          
H74      H      0.549500000000     0.240900000000     0.693800000000     0          
C75      C      0.031200000000     0.742500000000     0.716400000000     0          
H76      H      0.049500000000     0.740900000000     0.693800000000     0          
C77      C      0.468800000000     0.242500000000     0.283600000000     0          
H78      H      0.450500000000     0.240900000000     0.306200000000     0          
C79      C      0.968800000000     0.742500000000     0.283600000000     0          
H80      H      0.950500000000     0.740900000000     0.306200000000     0          
C81      C      0.257500000000     0.783600000000     0.531200000000     0          
H82      H      0.259100000000     0.806200000000     0.549500000000     0          
C83      C      0.257500000000     0.283600000000     0.031200000000     0          
H84      H      0.259100000000     0.306200000000     0.049500000000     0          
C85      C      0.257500000000     0.216400000000     0.468800000000     0          
H86      H      0.259100000000     0.193800000000     0.450500000000     0          
C87      C      0.757500000000     0.216400000000     0.968800000000     0          
H88      H      0.759100000000     0.193800000000     0.950500000000     0          
C89      C      0.757500000000     0.716400000000     0.468800000000     0          
H90      H      0.759100000000     0.693800000000     0.450500000000     0          
C91      C      0.242500000000     0.783600000000     0.968800000000     0          
H92      H      0.240900000000     0.806200000000     0.950500000000     0          
C93      C      0.742500000000     0.216400000000     0.531200000000     0          
H94      H      0.740900000000     0.193800000000     0.549500000000     0          
C95      C      0.742500000000     0.716400000000     0.031200000000     0          
H96      H      0.740900000000     0.693800000000     0.049500000000     0          
C97      C      0.531200000000     0.216400000000     0.742500000000     0          
H98      H      0.549500000000     0.193800000000     0.740900000000     0          
C99      C      0.531200000000     0.716400000000     0.242500000000     0          
H100     H      0.549500000000     0.693800000000     0.240900000000     0          
C101     C      0.031200000000     0.716400000000     0.742500000000     0          
H102     H      0.049500000000     0.693800000000     0.740900000000     0          
C103     C      0.468800000000     0.783600000000     0.742500000000     0          
H104     H      0.450500000000     0.806200000000     0.740900000000     0          
C105     C      0.968800000000     0.283600000000     0.742500000000     0          
H106     H      0.950500000000     0.306200000000     0.740900000000     0          
C107     C      0.468800000000     0.216400000000     0.257500000000     0          
H108     H      0.450500000000     0.193800000000     0.259100000000     0          
C109     C      0.968800000000     0.716400000000     0.257500000000     0          
H110     H      0.950500000000     0.693800000000     0.259100000000     0          
C111     C      0.031200000000     0.283600000000     0.257500000000     0          
H112     H      0.049500000000     0.306200000000     0.259100000000     0          
C113     C      0.742500000000     0.531200000000     0.216400000000     0          
H114     H      0.740900000000     0.549500000000     0.193800000000     0          
C115     C      0.742500000000     0.031200000000     0.716400000000     0          
H116     H      0.740900000000     0.049500000000     0.693800000000     0          
C117     C      0.242500000000     0.531200000000     0.716400000000     0          
H118     H      0.240900000000     0.549500000000     0.693800000000     0          
C119     C      0.742500000000     0.968800000000     0.283600000000     0          
H120     H      0.740900000000     0.950500000000     0.306200000000     0          
C121     C      0.242500000000     0.468800000000     0.283600000000     0          
H122     H      0.240900000000     0.450500000000     0.306200000000     0          
C123     C      0.257500000000     0.968800000000     0.716400000000     0          
H124     H      0.259100000000     0.950500000000     0.693800000000     0          
C125     C      0.757500000000     0.468800000000     0.716400000000     0          
H126     H      0.759100000000     0.450500000000     0.693800000000     0          
C127     C      0.257500000000     0.031200000000     0.283600000000     0          
H128     H      0.259100000000     0.049500000000     0.306200000000     0          
C129     C      0.716400000000     0.742500000000     0.031200000000     0          
H130     H      0.693800000000     0.740900000000     0.049500000000     0          
C131     C      0.716400000000     0.242500000000     0.531200000000     0          
H132     H      0.693800000000     0.240900000000     0.549500000000     0          
C133     C      0.783600000000     0.742500000000     0.468800000000     0          
H134     H      0.806200000000     0.740900000000     0.450500000000     0          
C135     C      0.783600000000     0.242500000000     0.968800000000     0          
H136     H      0.806200000000     0.240900000000     0.950500000000     0          
C137     C      0.283600000000     0.242500000000     0.468800000000     0          
H138     H      0.306200000000     0.240900000000     0.450500000000     0          
C139     C      0.216400000000     0.757500000000     0.968800000000     0          
H140     H      0.193800000000     0.759100000000     0.950500000000     0          
C141     C      0.283600000000     0.257500000000     0.031200000000     0          
H142     H      0.306200000000     0.259100000000     0.049500000000     0          
C143     C      0.283600000000     0.757500000000     0.531200000000     0          
H144     H      0.306200000000     0.759100000000     0.549500000000     0          
C145     C      0.216400000000     0.031200000000     0.757500000000     0          
H146     H      0.193800000000     0.049500000000     0.759100000000     0          
C147     C      0.716400000000     0.531200000000     0.757500000000     0          
H148     H      0.693800000000     0.549500000000     0.759100000000     0          
C149     C      0.783600000000     0.468800000000     0.257500000000     0          
H150     H      0.806200000000     0.450500000000     0.259100000000     0          
C151     C      0.783600000000     0.968800000000     0.757500000000     0          
H152     H      0.806200000000     0.950500000000     0.759100000000     0          
C153     C      0.283600000000     0.468800000000     0.757500000000     0          
H154     H      0.306200000000     0.450500000000     0.759100000000     0          
C155     C      0.216400000000     0.968800000000     0.242500000000     0          
H156     H      0.193800000000     0.950500000000     0.240900000000     0          
C157     C      0.783600000000     0.031200000000     0.242500000000     0          
H158     H      0.806200000000     0.049500000000     0.240900000000     0          
C159     C      0.283600000000     0.531200000000     0.242500000000     0          
H160     H      0.306200000000     0.549500000000     0.240900000000     0          
C161     C      0.531200000000     0.742500000000     0.783600000000     0          
H162     H      0.549500000000     0.740900000000     0.806200000000     0          
C163     C      0.031200000000     0.242500000000     0.783600000000     0          
H164     H      0.049500000000     0.240900000000     0.806200000000     0          
C165     C      0.968800000000     0.242500000000     0.216400000000     0          
H166     H      0.950500000000     0.240900000000     0.193800000000     0          
C167     C      0.468800000000     0.257500000000     0.783600000000     0          
H168     H      0.450500000000     0.259100000000     0.806200000000     0          
C169     C      0.468800000000     0.757500000000     0.283600000000     0          
H170     H      0.450500000000     0.759100000000     0.306200000000     0          
C171     C      0.968800000000     0.757500000000     0.783600000000     0          
H172     H      0.950500000000     0.759100000000     0.806200000000     0          
C173     C      0.531200000000     0.257500000000     0.216400000000     0          
H174     H      0.549500000000     0.259100000000     0.193800000000     0          
C175     C      0.031200000000     0.757500000000     0.216400000000     0          
H176     H      0.049500000000     0.759100000000     0.193800000000     0          
C177     C      0.242500000000     0.216400000000     0.968800000000     0          
H178     H      0.240900000000     0.193800000000     0.950500000000     0          
C179     C      0.242500000000     0.716400000000     0.468800000000     0          
H180     H      0.240900000000     0.693800000000     0.450500000000     0          
C181     C      0.742500000000     0.783600000000     0.531200000000     0          
H182     H      0.740900000000     0.806200000000     0.549500000000     0          
C183     C      0.742500000000     0.283600000000     0.031200000000     0          
H184     H      0.740900000000     0.306200000000     0.049500000000     0          
C185     C      0.242500000000     0.283600000000     0.531200000000     0          
H186     H      0.240900000000     0.306200000000     0.549500000000     0          
C187     C      0.257500000000     0.716400000000     0.031200000000     0          
H188     H      0.259100000000     0.693800000000     0.049500000000     0          
C189     C      0.757500000000     0.783600000000     0.968800000000     0          
H190     H      0.759100000000     0.806200000000     0.950500000000     0          
C191     C      0.757500000000     0.283600000000     0.468800000000     0          
H192     H      0.759100000000     0.306200000000     0.450500000000     0          
Zr193    Zr     0.500000000000     0.000000000000     0.075790000000     0          
Zr194    Zr     0.500000000000     0.500000000000     0.575790000000     0          
Zr195    Zr     0.500000000000     0.000000000000     0.924210000000     0          
Zr196    Zr     0.500000000000     0.500000000000     0.424210000000     0          
Zr197    Zr     0.075790000000     0.500000000000     0.000000000000     0          
Zr198    Zr     0.575790000000     0.500000000000     0.500000000000     0          
Zr199    Zr     0.924210000000     0.500000000000     0.000000000000     0          
Zr200    Zr     0.424210000000     0.500000000000     0.500000000000     0          
Zr201    Zr     0.000000000000     0.075790000000     0.500000000000     0          
Zr202    Zr     0.000000000000     0.575790000000     0.000000000000     0          
Zr203    Zr     0.000000000000     0.924210000000     0.500000000000     0          
Zr204    Zr     0.000000000000     0.424210000000     0.000000000000     0          
Zr205    Zr     0.000000000000     0.500000000000     0.924210000000     0          
Zr206    Zr     0.000000000000     0.000000000000     0.424210000000     0          
Zr207    Zr     0.000000000000     0.500000000000     0.075790000000     0          
Zr208    Zr     0.000000000000     0.000000000000     0.575790000000     0          
Zr209    Zr     0.500000000000     0.075790000000     0.000000000000     0          
Zr210    Zr     0.500000000000     0.575790000000     0.500000000000     0          
Zr211    Zr     0.500000000000     0.924210000000     0.000000000000     0          
Zr212    Zr     0.500000000000     0.424210000000     0.500000000000     0          
Zr213    Zr     0.075790000000     0.000000000000     0.500000000000     0          
Zr214    Zr     0.575790000000     0.000000000000     0.000000000000     0          
Zr215    Zr     0.924210000000     0.000000000000     0.500000000000     0          
Zr216    Zr     0.424210000000     0.000000000000     0.000000000000     0          
O217     O      0.537690000000     0.962310000000     0.037690000000     0          
O218     O      0.537690000000     0.462310000000     0.537690000000     0          
O219     O      0.462310000000     0.037690000000     0.037690000000     0          
O220     O      0.462310000000     0.537690000000     0.537690000000     0          
O221     O      0.462310000000     0.962310000000     0.962310000000     0          
O222     O      0.462310000000     0.462310000000     0.462310000000     0          
O223     O      0.537690000000     0.037690000000     0.962310000000     0          
O224     O      0.537690000000     0.537690000000     0.462310000000     0          
O225     O      0.037690000000     0.537690000000     0.962310000000     0          
O226     O      0.037690000000     0.462310000000     0.037690000000     0          
O227     O      0.962310000000     0.462310000000     0.962310000000     0          
O228     O      0.962310000000     0.537690000000     0.037690000000     0          
O229     O      0.962310000000     0.037690000000     0.537690000000     0          
O230     O      0.037690000000     0.037690000000     0.462310000000     0          
O231     O      0.962310000000     0.962310000000     0.462310000000     0          
O232     O      0.037690000000     0.962310000000     0.537690000000     0          
O233     O      0.962310000000     0.537690000000     0.962310000000     0          
O234     O      0.037690000000     0.462310000000     0.962310000000     0          
O235     O      0.962310000000     0.462310000000     0.037690000000     0          
O236     O      0.037690000000     0.537690000000     0.037690000000     0          
O237     O      0.537690000000     0.037690000000     0.037690000000     0          
O238     O      0.537690000000     0.537690000000     0.537690000000     0          
O239     O      0.462310000000     0.037690000000     0.962310000000     0          
O240     O      0.462310000000     0.537690000000     0.462310000000     0          
O241     O      0.462310000000     0.962310000000     0.037690000000     0          
O242     O      0.462310000000     0.462310000000     0.537690000000     0          
O243     O      0.537690000000     0.962310000000     0.962310000000     0          
O244     O      0.537690000000     0.462310000000     0.462310000000     0          
O245     O      0.037690000000     0.962310000000     0.462310000000     0          
O246     O      0.037690000000     0.037690000000     0.537690000000     0          
O247     O      0.962310000000     0.962310000000     0.537690000000     0          
O248     O      0.962310000000     0.037690000000     0.462310000000     0          
O249     O      0.500000000000     0.941170000000     0.109500000000     0          
C250     C      0.500000000000     0.885000000000     0.169700000000     0          
H251     H      0.500000000000     0.913100000000     0.177200000000     0          
C252     C      0.500000000000     0.855200000000     0.198600000000     0          
H253     H      0.500000000000     0.862600000000     0.226700000000     0          
O254     O      0.500000000000     0.441170000000     0.609500000000     0          
C255     C      0.500000000000     0.385000000000     0.669700000000     0          
H256     H      0.500000000000     0.413100000000     0.677200000000     0          
C257     C      0.500000000000     0.355200000000     0.698600000000     0          
H258     H      0.500000000000     0.362600000000     0.726700000000     0          
O259     O      0.000000000000     0.941170000000     0.609500000000     0          
C260     C      0.000000000000     0.885000000000     0.669700000000     0          
H261     H      0.000000000000     0.913100000000     0.677200000000     0          
C262     C      0.000000000000     0.855200000000     0.698600000000     0          
H263     H      0.000000000000     0.862600000000     0.726700000000     0          
O264     O      0.000000000000     0.441170000000     0.109500000000     0          
C265     C      0.000000000000     0.385000000000     0.169700000000     0          
H266     H      0.000000000000     0.413100000000     0.177200000000     0          
C267     C      0.000000000000     0.355200000000     0.198600000000     0          
H268     H      0.000000000000     0.362600000000     0.226700000000     0          
O269     O      0.500000000000     0.058830000000     0.109500000000     0          
C270     C      0.500000000000     0.115000000000     0.169700000000     0          
H271     H      0.500000000000     0.086900000000     0.177200000000     0          
C272     C      0.500000000000     0.144800000000     0.198600000000     0          
H273     H      0.500000000000     0.137400000000     0.226700000000     0          
O274     O      0.500000000000     0.558830000000     0.609500000000     0          
C275     C      0.500000000000     0.615000000000     0.669700000000     0          
H276     H      0.500000000000     0.586900000000     0.677200000000     0          
C277     C      0.500000000000     0.644800000000     0.698600000000     0          
H278     H      0.500000000000     0.637400000000     0.726700000000     0          
O279     O      0.000000000000     0.058830000000     0.609500000000     0          
C280     C      0.000000000000     0.115000000000     0.669700000000     0          
H281     H      0.000000000000     0.086900000000     0.677200000000     0          
C282     C      0.000000000000     0.144800000000     0.698600000000     0          
H283     H      0.000000000000     0.137400000000     0.726700000000     0          
O284     O      0.000000000000     0.558830000000     0.109500000000     0          
C285     C      0.000000000000     0.615000000000     0.169700000000     0          
H286     H      0.000000000000     0.586900000000     0.177200000000     0          
C287     C      0.000000000000     0.644800000000     0.198600000000     0          
H288     H      0.000000000000     0.637400000000     0.226700000000     0          
O289     O      0.500000000000     0.941170000000     0.890500000000     0          
C290     C      0.500000000000     0.885000000000     0.830300000000     0          
H291     H      0.500000000000     0.913100000000     0.822800000000     0          
C292     C      0.500000000000     0.855200000000     0.801400000000     0          
H293     H      0.500000000000     0.862600000000     0.773300000000     0          
O294     O      0.500000000000     0.441170000000     0.390500000000     0          
C295     C      0.500000000000     0.385000000000     0.330300000000     0          
H296     H      0.500000000000     0.413100000000     0.322800000000     0          
C297     C      0.500000000000     0.355200000000     0.301400000000     0          
H298     H      0.500000000000     0.362600000000     0.273300000000     0          
O299     O      0.000000000000     0.941170000000     0.390500000000     0          
C300     C      0.000000000000     0.885000000000     0.330300000000     0          
H301     H      0.000000000000     0.913100000000     0.322800000000     0          
C302     C      0.000000000000     0.855200000000     0.301400000000     0          
H303     H      0.000000000000     0.862600000000     0.273300000000     0          
O304     O      0.000000000000     0.441170000000     0.890500000000     0          
C305     C      0.000000000000     0.385000000000     0.830300000000     0          
H306     H      0.000000000000     0.413100000000     0.822800000000     0          
C307     C      0.000000000000     0.355200000000     0.801400000000     0          
H308     H      0.000000000000     0.362600000000     0.773300000000     0          
O309     O      0.500000000000     0.058830000000     0.890500000000     0          
C310     C      0.500000000000     0.115000000000     0.830300000000     0          
H311     H      0.500000000000     0.086900000000     0.822800000000     0          
C312     C      0.500000000000     0.144800000000     0.801400000000     0          
H313     H      0.500000000000     0.137400000000     0.773300000000     0          
O314     O      0.500000000000     0.558830000000     0.390500000000     0          
C315     C      0.500000000000     0.615000000000     0.330300000000     0          
H316     H      0.500000000000     0.586900000000     0.322800000000     0          
C317     C      0.500000000000     0.644800000000     0.301400000000     0          
H318     H      0.500000000000     0.637400000000     0.273300000000     0          
O319     O      0.000000000000     0.058830000000     0.390500000000     0          
C320     C      0.000000000000     0.115000000000     0.330300000000     0          
H321     H      0.000000000000     0.086900000000     0.322800000000     0          
C322     C      0.000000000000     0.144800000000     0.301400000000     0          
H323     H      0.000000000000     0.137400000000     0.273300000000     0          
O324     O      0.000000000000     0.558830000000     0.890500000000     0          
C325     C      0.000000000000     0.615000000000     0.830300000000     0          
H326     H      0.000000000000     0.586900000000     0.822800000000     0          
C327     C      0.000000000000     0.644800000000     0.801400000000     0          
H328     H      0.000000000000     0.637400000000     0.773300000000     0          
O329     O      0.109500000000     0.500000000000     0.941170000000     0          
C330     C      0.169700000000     0.500000000000     0.885000000000     0          
H331     H      0.177200000000     0.500000000000     0.913100000000     0          
C332     C      0.198600000000     0.500000000000     0.855200000000     0          
H333     H      0.226700000000     0.500000000000     0.862600000000     0          
O334     O      0.109500000000     0.000000000000     0.441170000000     0          
C335     C      0.169700000000     0.000000000000     0.385000000000     0          
H336     H      0.177200000000     0.000000000000     0.413100000000     0          
C337     C      0.198600000000     0.000000000000     0.355200000000     0          
H338     H      0.226700000000     0.000000000000     0.362600000000     0          
O339     O      0.609500000000     0.500000000000     0.441170000000     0          
C340     C      0.669700000000     0.500000000000     0.385000000000     0          
H341     H      0.677200000000     0.500000000000     0.413100000000     0          
C342     C      0.698600000000     0.500000000000     0.355200000000     0          
H343     H      0.726700000000     0.500000000000     0.362600000000     0          
O344     O      0.609500000000     0.000000000000     0.941170000000     0          
C345     C      0.669700000000     0.000000000000     0.885000000000     0          
H346     H      0.677200000000     0.000000000000     0.913100000000     0          
C347     C      0.698600000000     0.000000000000     0.855200000000     0          
H348     H      0.726700000000     0.000000000000     0.862600000000     0          
O349     O      0.109500000000     0.500000000000     0.058830000000     0          
C350     C      0.169700000000     0.500000000000     0.115000000000     0          
H351     H      0.177200000000     0.500000000000     0.086900000000     0          
C352     C      0.198600000000     0.500000000000     0.144800000000     0          
H353     H      0.226700000000     0.500000000000     0.137400000000     0          
O354     O      0.109500000000     0.000000000000     0.558830000000     0          
C355     C      0.169700000000     0.000000000000     0.615000000000     0          
H356     H      0.177200000000     0.000000000000     0.586900000000     0          
C357     C      0.198600000000     0.000000000000     0.644800000000     0          
H358     H      0.226700000000     0.000000000000     0.637400000000     0          
O359     O      0.609500000000     0.500000000000     0.558830000000     0          
C360     C      0.669700000000     0.500000000000     0.615000000000     0          
H361     H      0.677200000000     0.500000000000     0.586900000000     0          
C362     C      0.698600000000     0.500000000000     0.644800000000     0          
H363     H      0.726700000000     0.500000000000     0.637400000000     0          
O364     O      0.609500000000     0.000000000000     0.058830000000     0          
C365     C      0.669700000000     0.000000000000     0.115000000000     0          
H366     H      0.677200000000     0.000000000000     0.086900000000     0          
C367     C      0.698600000000     0.000000000000     0.144800000000     0          
H368     H      0.726700000000     0.000000000000     0.137400000000     0          
O369     O      0.890500000000     0.500000000000     0.941170000000     0          
C370     C      0.830300000000     0.500000000000     0.885000000000     0          
H371     H      0.822800000000     0.500000000000     0.913100000000     0          
C372     C      0.801400000000     0.500000000000     0.855200000000     0          
H373     H      0.773300000000     0.500000000000     0.862600000000     0          
O374     O      0.890500000000     0.000000000000     0.441170000000     0          
C375     C      0.830300000000     0.000000000000     0.385000000000     0          
H376     H      0.822800000000     0.000000000000     0.413100000000     0          
C377     C      0.801400000000     0.000000000000     0.355200000000     0          
H378     H      0.773300000000     0.000000000000     0.362600000000     0          
O379     O      0.390500000000     0.500000000000     0.441170000000     0          
C380     C      0.330300000000     0.500000000000     0.385000000000     0          
H381     H      0.322800000000     0.500000000000     0.413100000000     0          
C382     C      0.301400000000     0.500000000000     0.355200000000     0          
H383     H      0.273300000000     0.500000000000     0.362600000000     0          
O384     O      0.390500000000     0.000000000000     0.941170000000     0          
C385     C      0.330300000000     0.000000000000     0.885000000000     0          
H386     H      0.322800000000     0.000000000000     0.913100000000     0          
C387     C      0.301400000000     0.000000000000     0.855200000000     0          
H388     H      0.273300000000     0.000000000000     0.862600000000     0          
O389     O      0.890500000000     0.500000000000     0.058830000000     0          
C390     C      0.830300000000     0.500000000000     0.115000000000     0          
H391     H      0.822800000000     0.500000000000     0.086900000000     0          
C392     C      0.801400000000     0.500000000000     0.144800000000     0          
H393     H      0.773300000000     0.500000000000     0.137400000000     0          
O394     O      0.890500000000     0.000000000000     0.558830000000     0          
C395     C      0.830300000000     0.000000000000     0.615000000000     0          
H396     H      0.822800000000     0.000000000000     0.586900000000     0          
C397     C      0.801400000000     0.000000000000     0.644800000000     0          
H398     H      0.773300000000     0.000000000000     0.637400000000     0          
O399     O      0.390500000000     0.500000000000     0.558830000000     0          
C400     C      0.330300000000     0.500000000000     0.615000000000     0          
H401     H      0.322800000000     0.500000000000     0.586900000000     0          
C402     C      0.301400000000     0.500000000000     0.644800000000     0          
H403     H      0.273300000000     0.500000000000     0.637400000000     0          
O404     O      0.390500000000     0.000000000000     0.058830000000     0          
C405     C      0.330300000000     0.000000000000     0.115000000000     0          
H406     H      0.322800000000     0.000000000000     0.086900000000     0          
C407     C      0.301400000000     0.000000000000     0.144800000000     0          
H408     H      0.273300000000     0.000000000000     0.137400000000     0          
O409     O      0.941170000000     0.109500000000     0.500000000000     0          
C410     C      0.885000000000     0.169700000000     0.500000000000     0          
H411     H      0.913100000000     0.177200000000     0.500000000000     0          
C412     C      0.855200000000     0.198600000000     0.500000000000     0          
H413     H      0.862600000000     0.226700000000     0.500000000000     0          
O414     O      0.941170000000     0.609500000000     0.000000000000     0          
C415     C      0.885000000000     0.669700000000     0.000000000000     0          
H416     H      0.913100000000     0.677200000000     0.000000000000     0          
C417     C      0.855200000000     0.698600000000     0.000000000000     0          
H418     H      0.862600000000     0.726700000000     0.000000000000     0          
O419     O      0.441170000000     0.109500000000     0.000000000000     0          
C420     C      0.385000000000     0.169700000000     0.000000000000     0          
H421     H      0.413100000000     0.177200000000     0.000000000000     0          
C422     C      0.355200000000     0.198600000000     0.000000000000     0          
H423     H      0.362600000000     0.226700000000     0.000000000000     0          
O424     O      0.441170000000     0.609500000000     0.500000000000     0          
C425     C      0.385000000000     0.669700000000     0.500000000000     0          
H426     H      0.413100000000     0.677200000000     0.500000000000     0          
C427     C      0.355200000000     0.698600000000     0.500000000000     0          
H428     H      0.362600000000     0.726700000000     0.500000000000     0          
O429     O      0.058830000000     0.109500000000     0.500000000000     0          
C430     C      0.115000000000     0.169700000000     0.500000000000     0          
H431     H      0.086900000000     0.177200000000     0.500000000000     0          
C432     C      0.144800000000     0.198600000000     0.500000000000     0          
H433     H      0.137400000000     0.226700000000     0.500000000000     0          
O434     O      0.058830000000     0.609500000000     0.000000000000     0          
C435     C      0.115000000000     0.669700000000     0.000000000000     0          
H436     H      0.086900000000     0.677200000000     0.000000000000     0          
C437     C      0.144800000000     0.698600000000     0.000000000000     0          
H438     H      0.137400000000     0.726700000000     0.000000000000     0          
O439     O      0.558830000000     0.109500000000     0.000000000000     0          
C440     C      0.615000000000     0.169700000000     0.000000000000     0          
H441     H      0.586900000000     0.177200000000     0.000000000000     0          
C442     C      0.644800000000     0.198600000000     0.000000000000     0          
H443     H      0.637400000000     0.226700000000     0.000000000000     0          
O444     O      0.558830000000     0.609500000000     0.500000000000     0          
C445     C      0.615000000000     0.669700000000     0.500000000000     0          
H446     H      0.586900000000     0.677200000000     0.500000000000     0          
C447     C      0.644800000000     0.698600000000     0.500000000000     0          
H448     H      0.637400000000     0.726700000000     0.500000000000     0          
O449     O      0.941170000000     0.890500000000     0.500000000000     0          
C450     C      0.885000000000     0.830300000000     0.500000000000     0          
H451     H      0.913100000000     0.822800000000     0.500000000000     0          
C452     C      0.855200000000     0.801400000000     0.500000000000     0          
H453     H      0.862600000000     0.773300000000     0.500000000000     0          
O454     O      0.941170000000     0.390500000000     0.000000000000     0          
C455     C      0.885000000000     0.330300000000     0.000000000000     0          
H456     H      0.913100000000     0.322800000000     0.000000000000     0          
C457     C      0.855200000000     0.301400000000     0.000000000000     0          
H458     H      0.862600000000     0.273300000000     0.000000000000     0          
O459     O      0.441170000000     0.890500000000     0.000000000000     0          
C460     C      0.385000000000     0.830300000000     0.000000000000     0          
H461     H      0.413100000000     0.822800000000     0.000000000000     0          
C462     C      0.355200000000     0.801400000000     0.000000000000     0          
H463     H      0.362600000000     0.773300000000     0.000000000000     0          
O464     O      0.441170000000     0.390500000000     0.500000000000     0          
C465     C      0.385000000000     0.330300000000     0.500000000000     0          
H466     H      0.413100000000     0.322800000000     0.500000000000     0          
C467     C      0.355200000000     0.301400000000     0.500000000000     0          
H468     H      0.362600000000     0.273300000000     0.500000000000     0          
O469     O      0.058830000000     0.890500000000     0.500000000000     0          
C470     C      0.115000000000     0.830300000000     0.500000000000     0          
H471     H      0.086900000000     0.822800000000     0.500000000000     0          
C472     C      0.144800000000     0.801400000000     0.500000000000     0          
H473     H      0.137400000000     0.773300000000     0.500000000000     0          
O474     O      0.058830000000     0.390500000000     0.000000000000     0          
C475     C      0.115000000000     0.330300000000     0.000000000000     0          
H476     H      0.086900000000     0.322800000000     0.000000000000     0          
C477     C      0.144800000000     0.301400000000     0.000000000000     0          
H478     H      0.137400000000     0.273300000000     0.000000000000     0          
O479     O      0.558830000000     0.890500000000     0.000000000000     0          
C480     C      0.615000000000     0.830300000000     0.000000000000     0          
H481     H      0.586900000000     0.822800000000     0.000000000000     0          
C482     C      0.644800000000     0.801400000000     0.000000000000     0          
H483     H      0.637400000000     0.773300000000     0.000000000000     0          
O484     O      0.558830000000     0.390500000000     0.500000000000     0          
C485     C      0.615000000000     0.330300000000     0.500000000000     0          
H486     H      0.586900000000     0.322800000000     0.500000000000     0          
C487     C      0.644800000000     0.301400000000     0.500000000000     0          
H488     H      0.637400000000     0.273300000000     0.500000000000     0          
O489     O      0.941170000000     0.500000000000     0.890500000000     0          
C490     C      0.885000000000     0.500000000000     0.830300000000     0          
H491     H      0.913100000000     0.500000000000     0.822800000000     0          
C492     C      0.855200000000     0.500000000000     0.801400000000     0          
H493     H      0.862600000000     0.500000000000     0.773300000000     0          
O494     O      0.941170000000     0.000000000000     0.390500000000     0          
C495     C      0.885000000000     0.000000000000     0.330300000000     0          
H496     H      0.913100000000     0.000000000000     0.322800000000     0          
C497     C      0.855200000000     0.000000000000     0.301400000000     0          
H498     H      0.862600000000     0.000000000000     0.273300000000     0          
O499     O      0.441170000000     0.500000000000     0.390500000000     0          
C500     C      0.385000000000     0.500000000000     0.330300000000     0          
H501     H      0.413100000000     0.500000000000     0.322800000000     0          
C502     C      0.355200000000     0.500000000000     0.301400000000     0          
H503     H      0.362600000000     0.500000000000     0.273300000000     0          
O504     O      0.441170000000     0.000000000000     0.890500000000     0          
C505     C      0.385000000000     0.000000000000     0.830300000000     0          
H506     H      0.413100000000     0.000000000000     0.822800000000     0          
C507     C      0.355200000000     0.000000000000     0.801400000000     0          
H508     H      0.362600000000     0.000000000000     0.773300000000     0          
O509     O      0.058830000000     0.500000000000     0.890500000000     0          
C510     C      0.115000000000     0.500000000000     0.830300000000     0          
H511     H      0.086900000000     0.500000000000     0.822800000000     0          
C512     C      0.144800000000     0.500000000000     0.801400000000     0          
H513     H      0.137400000000     0.500000000000     0.773300000000     0          
O514     O      0.058830000000     0.000000000000     0.390500000000     0          
C515     C      0.115000000000     0.000000000000     0.330300000000     0          
H516     H      0.086900000000     0.000000000000     0.322800000000     0          
C517     C      0.144800000000     0.000000000000     0.301400000000     0          
H518     H      0.137400000000     0.000000000000     0.273300000000     0          
O519     O      0.558830000000     0.500000000000     0.390500000000     0          
C520     C      0.615000000000     0.500000000000     0.330300000000     0          
H521     H      0.586900000000     0.500000000000     0.322800000000     0          
C522     C      0.644800000000     0.500000000000     0.301400000000     0          
H523     H      0.637400000000     0.500000000000     0.273300000000     0          
O524     O      0.558830000000     0.000000000000     0.890500000000     0          
C525     C      0.615000000000     0.000000000000     0.830300000000     0          
H526     H      0.586900000000     0.000000000000     0.822800000000     0          
C527     C      0.644800000000     0.000000000000     0.801400000000     0          
H528     H      0.637400000000     0.000000000000     0.773300000000     0          
O529     O      0.941170000000     0.500000000000     0.109500000000     0          
C530     C      0.885000000000     0.500000000000     0.169700000000     0          
H531     H      0.913100000000     0.500000000000     0.177200000000     0          
C532     C      0.855200000000     0.500000000000     0.198600000000     0          
H533     H      0.862600000000     0.500000000000     0.226700000000     0          
O534     O      0.941170000000     0.000000000000     0.609500000000     0          
C535     C      0.885000000000     0.000000000000     0.669700000000     0          
H536     H      0.913100000000     0.000000000000     0.677200000000     0          
C537     C      0.855200000000     0.000000000000     0.698600000000     0          
H538     H      0.862600000000     0.000000000000     0.726700000000     0          
O539     O      0.441170000000     0.500000000000     0.609500000000     0          
C540     C      0.385000000000     0.500000000000     0.669700000000     0          
H541     H      0.413100000000     0.500000000000     0.677200000000     0          
C542     C      0.355200000000     0.500000000000     0.698600000000     0          
H543     H      0.362600000000     0.500000000000     0.726700000000     0          
O544     O      0.441170000000     0.000000000000     0.109500000000     0          
C545     C      0.385000000000     0.000000000000     0.169700000000     0          
H546     H      0.413100000000     0.000000000000     0.177200000000     0          
C547     C      0.355200000000     0.000000000000     0.198600000000     0          
H548     H      0.362600000000     0.000000000000     0.226700000000     0          
O549     O      0.058830000000     0.500000000000     0.109500000000     0          
C550     C      0.115000000000     0.500000000000     0.169700000000     0          
H551     H      0.086900000000     0.500000000000     0.177200000000     0          
C552     C      0.144800000000     0.500000000000     0.198600000000     0          
H553     H      0.137400000000     0.500000000000     0.226700000000     0          
O554     O      0.058830000000     0.000000000000     0.609500000000     0          
C555     C      0.115000000000     0.000000000000     0.669700000000     0          
H556     H      0.086900000000     0.000000000000     0.677200000000     0          
C557     C      0.144800000000     0.000000000000     0.698600000000     0          
H558     H      0.137400000000     0.000000000000     0.726700000000     0          
O559     O      0.558830000000     0.500000000000     0.609500000000     0          
C560     C      0.615000000000     0.500000000000     0.669700000000     0          
H561     H      0.586900000000     0.500000000000     0.677200000000     0          
C562     C      0.644800000000     0.500000000000     0.698600000000     0          
H563     H      0.637400000000     0.500000000000     0.726700000000     0          
O564     O      0.558830000000     0.000000000000     0.109500000000     0          
C565     C      0.615000000000     0.000000000000     0.169700000000     0          
H566     H      0.586900000000     0.000000000000     0.177200000000     0          
C567     C      0.644800000000     0.000000000000     0.198600000000     0          
H568     H      0.637400000000     0.000000000000     0.226700000000     0          
O569     O      0.500000000000     0.109500000000     0.058830000000     0          
C570     C      0.500000000000     0.169700000000     0.115000000000     0          
H571     H      0.500000000000     0.177200000000     0.086900000000     0          
C572     C      0.500000000000     0.198600000000     0.144800000000     0          
H573     H      0.500000000000     0.226700000000     0.137400000000     0          
O574     O      0.500000000000     0.609500000000     0.558830000000     0          
C575     C      0.500000000000     0.669700000000     0.615000000000     0          
H576     H      0.500000000000     0.677200000000     0.586900000000     0          
C577     C      0.500000000000     0.698600000000     0.644800000000     0          
H578     H      0.500000000000     0.726700000000     0.637400000000     0          
O579     O      0.000000000000     0.109500000000     0.558830000000     0          
C580     C      0.000000000000     0.169700000000     0.615000000000     0          
H581     H      0.000000000000     0.177200000000     0.586900000000     0          
C582     C      0.000000000000     0.198600000000     0.644800000000     0          
H583     H      0.000000000000     0.226700000000     0.637400000000     0          
O584     O      0.000000000000     0.609500000000     0.058830000000     0          
C585     C      0.000000000000     0.669700000000     0.115000000000     0          
H586     H      0.000000000000     0.677200000000     0.086900000000     0          
C587     C      0.000000000000     0.698600000000     0.144800000000     0          
H588     H      0.000000000000     0.726700000000     0.137400000000     0          
O589     O      0.500000000000     0.109500000000     0.941170000000     0          
C590     C      0.500000000000     0.169700000000     0.885000000000     0          
H591     H      0.500000000000     0.177200000000     0.913100000000     0          
C592     C      0.500000000000     0.198600000000     0.855200000000     0          
H593     H      0.500000000000     0.226700000000     0.862600000000     0          
O594     O      0.500000000000     0.609500000000     0.441170000000     0          
C595     C      0.500000000000     0.669700000000     0.385000000000     0          
H596     H      0.500000000000     0.677200000000     0.413100000000     0          
C597     C      0.500000000000     0.698600000000     0.355200000000     0          
H598     H      0.500000000000     0.726700000000     0.362600000000     0          
O599     O      0.000000000000     0.109500000000     0.441170000000     0          
C600     C      0.000000000000     0.169700000000     0.385000000000     0          
H601     H      0.000000000000     0.177200000000     0.413100000000     0          
C602     C      0.000000000000     0.198600000000     0.355200000000     0          
H603     H      0.000000000000     0.226700000000     0.362600000000     0          
O604     O      0.000000000000     0.609500000000     0.941170000000     0          
C605     C      0.000000000000     0.669700000000     0.885000000000     0          
H606     H      0.000000000000     0.677200000000     0.913100000000     0          
C607     C      0.000000000000     0.698600000000     0.855200000000     0          
H608     H      0.000000000000     0.726700000000     0.862600000000     0          
O609     O      0.500000000000     0.890500000000     0.058830000000     0          
C610     C      0.500000000000     0.830300000000     0.115000000000     0          
H611     H      0.500000000000     0.822800000000     0.086900000000     0          
C612     C      0.500000000000     0.801400000000     0.144800000000     0          
H613     H      0.500000000000     0.773300000000     0.137400000000     0          
O614     O      0.500000000000     0.390500000000     0.558830000000     0          
C615     C      0.500000000000     0.330300000000     0.615000000000     0          
H616     H      0.500000000000     0.322800000000     0.586900000000     0          
C617     C      0.500000000000     0.301400000000     0.644800000000     0          
H618     H      0.500000000000     0.273300000000     0.637400000000     0          
O619     O      0.000000000000     0.890500000000     0.558830000000     0          
C620     C      0.000000000000     0.830300000000     0.615000000000     0          
H621     H      0.000000000000     0.822800000000     0.586900000000     0          
C622     C      0.000000000000     0.801400000000     0.644800000000     0          
H623     H      0.000000000000     0.773300000000     0.637400000000     0          
O624     O      0.000000000000     0.390500000000     0.058830000000     0          
C625     C      0.000000000000     0.330300000000     0.115000000000     0          
H626     H      0.000000000000     0.322800000000     0.086900000000     0          
C627     C      0.000000000000     0.301400000000     0.144800000000     0          
H628     H      0.000000000000     0.273300000000     0.137400000000     0          
O629     O      0.500000000000     0.890500000000     0.941170000000     0          
C630     C      0.500000000000     0.830300000000     0.885000000000     0          
H631     H      0.500000000000     0.822800000000     0.913100000000     0          
C632     C      0.500000000000     0.801400000000     0.855200000000     0          
H633     H      0.500000000000     0.773300000000     0.862600000000     0          
O634     O      0.500000000000     0.390500000000     0.441170000000     0          
C635     C      0.500000000000     0.330300000000     0.385000000000     0          
H636     H      0.500000000000     0.322800000000     0.413100000000     0          
C637     C      0.500000000000     0.301400000000     0.355200000000     0          
H638     H      0.500000000000     0.273300000000     0.362600000000     0          
O639     O      0.000000000000     0.890500000000     0.441170000000     0          
C640     C      0.000000000000     0.830300000000     0.385000000000     0          
H641     H      0.000000000000     0.822800000000     0.413100000000     0          
C642     C      0.000000000000     0.801400000000     0.355200000000     0          
H643     H      0.000000000000     0.773300000000     0.362600000000     0          
O644     O      0.000000000000     0.390500000000     0.941170000000     0          
C645     C      0.000000000000     0.330300000000     0.885000000000     0          
H646     H      0.000000000000     0.322800000000     0.913100000000     0          
C647     C      0.000000000000     0.301400000000     0.855200000000     0          
H648     H      0.000000000000     0.273300000000     0.862600000000     0          
O649     O      0.109500000000     0.941170000000     0.500000000000     0          
C650     C      0.169700000000     0.885000000000     0.500000000000     0          
H651     H      0.177200000000     0.913100000000     0.500000000000     0          
C652     C      0.198600000000     0.855200000000     0.500000000000     0          
H653     H      0.226700000000     0.862600000000     0.500000000000     0          
O654     O      0.109500000000     0.441170000000     0.000000000000     0          
C655     C      0.169700000000     0.385000000000     0.000000000000     0          
H656     H      0.177200000000     0.413100000000     0.000000000000     0          
C657     C      0.198600000000     0.355200000000     0.000000000000     0          
H658     H      0.226700000000     0.362600000000     0.000000000000     0          
O659     O      0.609500000000     0.941170000000     0.000000000000     0          
C660     C      0.669700000000     0.885000000000     0.000000000000     0          
H661     H      0.677200000000     0.913100000000     0.000000000000     0          
C662     C      0.698600000000     0.855200000000     0.000000000000     0          
H663     H      0.726700000000     0.862600000000     0.000000000000     0          
O664     O      0.609500000000     0.441170000000     0.500000000000     0          
C665     C      0.669700000000     0.385000000000     0.500000000000     0          
H666     H      0.677200000000     0.413100000000     0.500000000000     0          
C667     C      0.698600000000     0.355200000000     0.500000000000     0          
H668     H      0.726700000000     0.362600000000     0.500000000000     0          
O669     O      0.109500000000     0.058830000000     0.500000000000     0          
C670     C      0.169700000000     0.115000000000     0.500000000000     0          
H671     H      0.177200000000     0.086900000000     0.500000000000     0          
C672     C      0.198600000000     0.144800000000     0.500000000000     0          
H673     H      0.226700000000     0.137400000000     0.500000000000     0          
O674     O      0.109500000000     0.558830000000     0.000000000000     0          
C675     C      0.169700000000     0.615000000000     0.000000000000     0          
H676     H      0.177200000000     0.586900000000     0.000000000000     0          
C677     C      0.198600000000     0.644800000000     0.000000000000     0          
H678     H      0.226700000000     0.637400000000     0.000000000000     0          
O679     O      0.609500000000     0.058830000000     0.000000000000     0          
C680     C      0.669700000000     0.115000000000     0.000000000000     0          
H681     H      0.677200000000     0.086900000000     0.000000000000     0          
C682     C      0.698600000000     0.144800000000     0.000000000000     0          
H683     H      0.726700000000     0.137400000000     0.000000000000     0          
O684     O      0.609500000000     0.558830000000     0.500000000000     0          
C685     C      0.669700000000     0.615000000000     0.500000000000     0          
H686     H      0.677200000000     0.586900000000     0.500000000000     0          
C687     C      0.698600000000     0.644800000000     0.500000000000     0          
H688     H      0.726700000000     0.637400000000     0.500000000000     0          
O689     O      0.890500000000     0.941170000000     0.500000000000     0          
C690     C      0.830300000000     0.885000000000     0.500000000000     0          
H691     H      0.822800000000     0.913100000000     0.500000000000     0          
C692     C      0.801400000000     0.855200000000     0.500000000000     0          
H693     H      0.773300000000     0.862600000000     0.500000000000     0          
O694     O      0.890500000000     0.441170000000     0.000000000000     0          
C695     C      0.830300000000     0.385000000000     0.000000000000     0          
H696     H      0.822800000000     0.413100000000     0.000000000000     0          
C697     C      0.801400000000     0.355200000000     0.000000000000     0          
H698     H      0.773300000000     0.362600000000     0.000000000000     0          
O699     O      0.390500000000     0.941170000000     0.000000000000     0          
C700     C      0.330300000000     0.885000000000     0.000000000000     0          
H701     H      0.322800000000     0.913100000000     0.000000000000     0          
C702     C      0.301400000000     0.855200000000     0.000000000000     0          
H703     H      0.273300000000     0.862600000000     0.000000000000     0          
O704     O      0.390500000000     0.441170000000     0.500000000000     0          
C705     C      0.330300000000     0.385000000000     0.500000000000     0          
H706     H      0.322800000000     0.413100000000     0.500000000000     0          
C707     C      0.301400000000     0.355200000000     0.500000000000     0          
H708     H      0.273300000000     0.362600000000     0.500000000000     0          
O709     O      0.890500000000     0.058830000000     0.500000000000     0          
C710     C      0.830300000000     0.115000000000     0.500000000000     0          
H711     H      0.822800000000     0.086900000000     0.500000000000     0          
C712     C      0.801400000000     0.144800000000     0.500000000000     0          
H713     H      0.773300000000     0.137400000000     0.500000000000     0          
O714     O      0.890500000000     0.558830000000     0.000000000000     0          
C715     C      0.830300000000     0.615000000000     0.000000000000     0          
H716     H      0.822800000000     0.586900000000     0.000000000000     0          
C717     C      0.801400000000     0.644800000000     0.000000000000     0          
H718     H      0.773300000000     0.637400000000     0.000000000000     0          
O719     O      0.390500000000     0.058830000000     0.000000000000     0          
C720     C      0.330300000000     0.115000000000     0.000000000000     0          
H721     H      0.322800000000     0.086900000000     0.000000000000     0          
C722     C      0.301400000000     0.144800000000     0.000000000000     0          
H723     H      0.273300000000     0.137400000000     0.000000000000     0          
O724     O      0.390500000000     0.558830000000     0.500000000000     0          
C725     C      0.330300000000     0.615000000000     0.500000000000     0          
H726     H      0.322800000000     0.586900000000     0.500000000000     0          
C727     C      0.301400000000     0.644800000000     0.500000000000     0          
H728     H      0.273300000000     0.637400000000     0.500000000000     0          
C729     C      0.500000000000     0.903800000000     0.096200000000     0          
C730     C      0.500000000000     0.872600000000     0.127400000000     0          
C731     C      0.500000000000     0.812700000000     0.187300000000     0          
C732     C      0.500000000000     0.779700000000     0.220300000000     0          
C733     C      0.500000000000     0.403800000000     0.596200000000     0          
C734     C      0.500000000000     0.372600000000     0.627400000000     0          
C735     C      0.500000000000     0.312700000000     0.687300000000     0          
C736     C      0.500000000000     0.279700000000     0.720300000000     0          
C737     C      0.000000000000     0.903800000000     0.596200000000     0          
C738     C      0.000000000000     0.872600000000     0.627400000000     0          
C739     C      0.000000000000     0.812700000000     0.687300000000     0          
C740     C      0.000000000000     0.779700000000     0.720300000000     0          
C741     C      0.000000000000     0.403800000000     0.096200000000     0          
C742     C      0.000000000000     0.372600000000     0.127400000000     0          
C743     C      0.000000000000     0.312700000000     0.187300000000     0          
C744     C      0.000000000000     0.279700000000     0.220300000000     0          
C745     C      0.500000000000     0.096200000000     0.096200000000     0          
C746     C      0.500000000000     0.127400000000     0.127400000000     0          
C747     C      0.500000000000     0.187300000000     0.187300000000     0          
C748     C      0.500000000000     0.220300000000     0.220300000000     0          
C749     C      0.500000000000     0.596200000000     0.596200000000     0          
C750     C      0.500000000000     0.627400000000     0.627400000000     0          
C751     C      0.500000000000     0.687300000000     0.687300000000     0          
C752     C      0.500000000000     0.720300000000     0.720300000000     0          
C753     C      0.000000000000     0.096200000000     0.596200000000     0          
C754     C      0.000000000000     0.127400000000     0.627400000000     0          
C755     C      0.000000000000     0.187300000000     0.687300000000     0          
C756     C      0.000000000000     0.220300000000     0.720300000000     0          
C757     C      0.000000000000     0.596200000000     0.096200000000     0          
C758     C      0.000000000000     0.627400000000     0.127400000000     0          
C759     C      0.000000000000     0.687300000000     0.187300000000     0          
C760     C      0.000000000000     0.720300000000     0.220300000000     0          
C761     C      0.500000000000     0.903800000000     0.903800000000     0          
C762     C      0.500000000000     0.872600000000     0.872600000000     0          
C763     C      0.500000000000     0.812700000000     0.812700000000     0          
C764     C      0.500000000000     0.779700000000     0.779700000000     0          
C765     C      0.500000000000     0.403800000000     0.403800000000     0          
C766     C      0.500000000000     0.372600000000     0.372600000000     0          
C767     C      0.500000000000     0.312700000000     0.312700000000     0          
C768     C      0.500000000000     0.279700000000     0.279700000000     0          
C769     C      0.000000000000     0.903800000000     0.403800000000     0          
C770     C      0.000000000000     0.872600000000     0.372600000000     0          
C771     C      0.000000000000     0.812700000000     0.312700000000     0          
C772     C      0.000000000000     0.779700000000     0.279700000000     0          
C773     C      0.000000000000     0.403800000000     0.903800000000     0          
C774     C      0.000000000000     0.372600000000     0.872600000000     0          
C775     C      0.000000000000     0.312700000000     0.812700000000     0          
C776     C      0.000000000000     0.279700000000     0.779700000000     0          
C777     C      0.500000000000     0.096200000000     0.903800000000     0          
C778     C      0.500000000000     0.127400000000     0.872600000000     0          
C779     C      0.500000000000     0.187300000000     0.812700000000     0          
C780     C      0.500000000000     0.220300000000     0.779700000000     0          
C781     C      0.500000000000     0.596200000000     0.403800000000     0          
C782     C      0.500000000000     0.627400000000     0.372600000000     0          
C783     C      0.500000000000     0.687300000000     0.312700000000     0          
C784     C      0.500000000000     0.720300000000     0.279700000000     0          
C785     C      0.000000000000     0.096200000000     0.403800000000     0          
C786     C      0.000000000000     0.127400000000     0.372600000000     0          
C787     C      0.000000000000     0.187300000000     0.312700000000     0          
C788     C      0.000000000000     0.220300000000     0.279700000000     0          
C789     C      0.000000000000     0.596200000000     0.903800000000     0          
C790     C      0.000000000000     0.627400000000     0.872600000000     0          
C791     C      0.000000000000     0.687300000000     0.812700000000     0          
C792     C      0.000000000000     0.720300000000     0.779700000000     0          
C793     C      0.096200000000     0.500000000000     0.903800000000     0          
C794     C      0.127400000000     0.500000000000     0.872600000000     0          
C795     C      0.187300000000     0.500000000000     0.812700000000     0          
C796     C      0.220300000000     0.500000000000     0.779700000000     0          
C797     C      0.096200000000     0.000000000000     0.403800000000     0          
C798     C      0.127400000000     0.000000000000     0.372600000000     0          
C799     C      0.187300000000     0.000000000000     0.312700000000     0          
C800     C      0.220300000000     0.000000000000     0.279700000000     0          
C801     C      0.596200000000     0.500000000000     0.403800000000     0          
C802     C      0.627400000000     0.500000000000     0.372600000000     0          
C803     C      0.687300000000     0.500000000000     0.312700000000     0          
C804     C      0.720300000000     0.500000000000     0.279700000000     0          
C805     C      0.596200000000     0.000000000000     0.903800000000     0          
C806     C      0.627400000000     0.000000000000     0.872600000000     0          
C807     C      0.687300000000     0.000000000000     0.812700000000     0          
C808     C      0.720300000000     0.000000000000     0.779700000000     0          
C809     C      0.096200000000     0.500000000000     0.096200000000     0          
C810     C      0.127400000000     0.500000000000     0.127400000000     0          
C811     C      0.187300000000     0.500000000000     0.187300000000     0          
C812     C      0.220300000000     0.500000000000     0.220300000000     0          
C813     C      0.096200000000     0.000000000000     0.596200000000     0          
C814     C      0.127400000000     0.000000000000     0.627400000000     0          
C815     C      0.187300000000     0.000000000000     0.687300000000     0          
C816     C      0.220300000000     0.000000000000     0.720300000000     0          
C817     C      0.596200000000     0.500000000000     0.596200000000     0          
C818     C      0.627400000000     0.500000000000     0.627400000000     0          
C819     C      0.687300000000     0.500000000000     0.687300000000     0          
C820     C      0.720300000000     0.500000000000     0.720300000000     0          
C821     C      0.596200000000     0.000000000000     0.096200000000     0          
C822     C      0.627400000000     0.000000000000     0.127400000000     0          
C823     C      0.687300000000     0.000000000000     0.187300000000     0          
C824     C      0.720300000000     0.000000000000     0.220300000000     0          
C825     C      0.903800000000     0.500000000000     0.903800000000     0          
C826     C      0.872600000000     0.500000000000     0.872600000000     0          
C827     C      0.812700000000     0.500000000000     0.812700000000     0          
C828     C      0.779700000000     0.500000000000     0.779700000000     0          
C829     C      0.903800000000     0.000000000000     0.403800000000     0          
C830     C      0.872600000000     0.000000000000     0.372600000000     0          
C831     C      0.812700000000     0.000000000000     0.312700000000     0          
C832     C      0.779700000000     0.000000000000     0.279700000000     0          
C833     C      0.403800000000     0.500000000000     0.403800000000     0          
C834     C      0.372600000000     0.500000000000     0.372600000000     0          
C835     C      0.312700000000     0.500000000000     0.312700000000     0          
C836     C      0.279700000000     0.500000000000     0.279700000000     0          
C837     C      0.403800000000     0.000000000000     0.903800000000     0          
C838     C      0.372600000000     0.000000000000     0.872600000000     0          
C839     C      0.312700000000     0.000000000000     0.812700000000     0          
C840     C      0.279700000000     0.000000000000     0.779700000000     0          
C841     C      0.903800000000     0.500000000000     0.096200000000     0          
C842     C      0.872600000000     0.500000000000     0.127400000000     0          
C843     C      0.812700000000     0.500000000000     0.187300000000     0          
C844     C      0.779700000000     0.500000000000     0.220300000000     0          
C845     C      0.903800000000     0.000000000000     0.596200000000     0          
C846     C      0.872600000000     0.000000000000     0.627400000000     0          
C847     C      0.812700000000     0.000000000000     0.687300000000     0          
C848     C      0.779700000000     0.000000000000     0.720300000000     0          
C849     C      0.403800000000     0.500000000000     0.596200000000     0          
C850     C      0.372600000000     0.500000000000     0.627400000000     0          
C851     C      0.312700000000     0.500000000000     0.687300000000     0          
C852     C      0.279700000000     0.500000000000     0.720300000000     0          
C853     C      0.403800000000     0.000000000000     0.096200000000     0          
C854     C      0.372600000000     0.000000000000     0.127400000000     0          
C855     C      0.312700000000     0.000000000000     0.187300000000     0          
C856     C      0.279700000000     0.000000000000     0.220300000000     0          
C857     C      0.903800000000     0.096200000000     0.500000000000     0          
C858     C      0.872600000000     0.127400000000     0.500000000000     0          
C859     C      0.812700000000     0.187300000000     0.500000000000     0          
C860     C      0.779700000000     0.220300000000     0.500000000000     0          
C861     C      0.903800000000     0.596200000000     0.000000000000     0          
C862     C      0.872600000000     0.627400000000     0.000000000000     0          
C863     C      0.812700000000     0.687300000000     0.000000000000     0          
C864     C      0.779700000000     0.720300000000     0.000000000000     0          
C865     C      0.403800000000     0.096200000000     0.000000000000     0          
C866     C      0.372600000000     0.127400000000     0.000000000000     0          
C867     C      0.312700000000     0.187300000000     0.000000000000     0          
C868     C      0.279700000000     0.220300000000     0.000000000000     0          
C869     C      0.403800000000     0.596200000000     0.500000000000     0          
C870     C      0.372600000000     0.627400000000     0.500000000000     0          
C871     C      0.312700000000     0.687300000000     0.500000000000     0          
C872     C      0.279700000000     0.720300000000     0.500000000000     0          
C873     C      0.096200000000     0.096200000000     0.500000000000     0          
C874     C      0.127400000000     0.127400000000     0.500000000000     0          
C875     C      0.187300000000     0.187300000000     0.500000000000     0          
C876     C      0.220300000000     0.220300000000     0.500000000000     0          
C877     C      0.096200000000     0.596200000000     0.000000000000     0          
C878     C      0.127400000000     0.627400000000     0.000000000000     0          
C879     C      0.187300000000     0.687300000000     0.000000000000     0          
C880     C      0.220300000000     0.720300000000     0.000000000000     0          
C881     C      0.596200000000     0.096200000000     0.000000000000     0          
C882     C      0.627400000000     0.127400000000     0.000000000000     0          
C883     C      0.687300000000     0.187300000000     0.000000000000     0          
C884     C      0.720300000000     0.220300000000     0.000000000000     0          
C885     C      0.596200000000     0.596200000000     0.500000000000     0          
C886     C      0.627400000000     0.627400000000     0.500000000000     0          
C887     C      0.687300000000     0.687300000000     0.500000000000     0          
C888     C      0.720300000000     0.720300000000     0.500000000000     0          
C889     C      0.903800000000     0.903800000000     0.500000000000     0          
C890     C      0.872600000000     0.872600000000     0.500000000000     0          
C891     C      0.812700000000     0.812700000000     0.500000000000     0          
C892     C      0.779700000000     0.779700000000     0.500000000000     0          
C893     C      0.903800000000     0.403800000000     0.000000000000     0          
C894     C      0.872600000000     0.372600000000     0.000000000000     0          
C895     C      0.812700000000     0.312700000000     0.000000000000     0          
C896     C      0.779700000000     0.279700000000     0.000000000000     0          
C897     C      0.403800000000     0.903800000000     0.000000000000     0          
C898     C      0.372600000000     0.872600000000     0.000000000000     0          
C899     C      0.312700000000     0.812700000000     0.000000000000     0          
C900     C      0.279700000000     0.779700000000     0.000000000000     0          
C901     C      0.403800000000     0.403800000000     0.500000000000     0          
C902     C      0.372600000000     0.372600000000     0.500000000000     0          
C903     C      0.312700000000     0.312700000000     0.500000000000     0          
C904     C      0.279700000000     0.279700000000     0.500000000000     0          
C905     C      0.096200000000     0.903800000000     0.500000000000     0          
C906     C      0.127400000000     0.872600000000     0.500000000000     0          
C907     C      0.187300000000     0.812700000000     0.500000000000     0          
C908     C      0.220300000000     0.779700000000     0.500000000000     0          
C909     C      0.096200000000     0.403800000000     0.000000000000     0          
C910     C      0.127400000000     0.372600000000     0.000000000000     0          
C911     C      0.187300000000     0.312700000000     0.000000000000     0          
C912     C      0.220300000000     0.279700000000     0.000000000000     0          
C913     C      0.596200000000     0.903800000000     0.000000000000     0          
C914     C      0.627400000000     0.872600000000     0.000000000000     0          
C915     C      0.687300000000     0.812700000000     0.000000000000     0          
C916     C      0.720300000000     0.779700000000     0.000000000000     0          
C917     C      0.596200000000     0.403800000000     0.500000000000     0          
C918     C      0.627400000000     0.372600000000     0.500000000000     0          
C919     C      0.687300000000     0.312700000000     0.500000000000     0          
C920     C      0.720300000000     0.279700000000     0.500000000000     0          


