data_DUWYIF

_audit_creation_method RASPA-1.0
_audit_creation_date 2020-11-2
_audit_author_name 'Rocio Bueno-Perez'

_cell_length_a    29.7685
_cell_length_b    29.7685
_cell_length_c    29.7685
_cell_angle_alpha 90
_cell_angle_beta  90
_cell_angle_gamma 90
_cell_volume      26379.8

_symmetry_cell_setting          triclinic
_symmetry_space_group_name_Hall 'P 1'
_symmetry_space_group_name_H-M  'P 1'
_symmetry_Int_Tables_number     1

_symmetry_equiv_pos_as_xyz 'x,y,z'

loop_
_atom_site_label
_atom_site_type_symbol
_atom_site_fract_x
_atom_site_fract_y
_atom_site_fract_z
_atom_site_charge
C1       C      0.626800000000     0.186400000000     0.514100000000     0          
H2       H      0.596600000000     0.192700000000     0.522000000000     0          
C3       C      0.661600000000     0.219700000000     0.514800000000     0          
H4       H      0.655700000000     0.249600000000     0.524500000000     0          
C5       C      0.126800000000     0.186400000000     0.014100000000     0          
H6       H      0.096600000000     0.192700000000     0.022000000000     0          
C7       C      0.161600000000     0.219700000000     0.014800000000     0          
H8       H      0.155700000000     0.249600000000     0.024500000000     0          
C9       C      0.126800000000     0.686400000000     0.514100000000     0          
H10      H      0.096600000000     0.692700000000     0.522000000000     0          
C11      C      0.161600000000     0.719700000000     0.514800000000     0          
H12      H      0.155700000000     0.749600000000     0.524500000000     0          
C13      C      0.373200000000     0.813600000000     0.514100000000     0          
H14      H      0.403400000000     0.807300000000     0.522000000000     0          
C15      C      0.338400000000     0.780300000000     0.514800000000     0          
H16      H      0.344300000000     0.750400000000     0.524500000000     0          
C17      C      0.373200000000     0.313600000000     0.014100000000     0          
H18      H      0.403400000000     0.307300000000     0.022000000000     0          
C19      C      0.338400000000     0.280300000000     0.014800000000     0          
H20      H      0.344300000000     0.250400000000     0.024500000000     0          
C21      C      0.873200000000     0.813600000000     0.014100000000     0          
H22      H      0.903400000000     0.807300000000     0.022000000000     0          
C23      C      0.838400000000     0.780300000000     0.014800000000     0          
H24      H      0.844300000000     0.750400000000     0.024500000000     0          
C25      C      0.873200000000     0.313600000000     0.514100000000     0          
H26      H      0.903400000000     0.307300000000     0.522000000000     0          
C27      C      0.838400000000     0.280300000000     0.514800000000     0          
H28      H      0.844300000000     0.250400000000     0.524500000000     0          
C29      C      0.373200000000     0.186400000000     0.485900000000     0          
H30      H      0.403400000000     0.192700000000     0.478000000000     0          
C31      C      0.338400000000     0.219700000000     0.485200000000     0          
H32      H      0.344300000000     0.249600000000     0.475500000000     0          
C33      C      0.373200000000     0.686400000000     0.985900000000     0          
H34      H      0.403400000000     0.692700000000     0.978000000000     0          
C35      C      0.338400000000     0.719700000000     0.985200000000     0          
H36      H      0.344300000000     0.749600000000     0.975500000000     0          
C37      C      0.252800000000     0.731300000000     0.982100000000     0          
C38      C      0.752800000000     0.231300000000     0.982100000000     0          
C39      C      0.626800000000     0.313600000000     0.985900000000     0          
H40      H      0.596600000000     0.307300000000     0.978000000000     0          
C41      C      0.661600000000     0.280300000000     0.985200000000     0          
H42      H      0.655700000000     0.250400000000     0.975500000000     0          
C43      C      0.126800000000     0.813600000000     0.985900000000     0          
H44      H      0.096600000000     0.807300000000     0.978000000000     0          
C45      C      0.161600000000     0.780300000000     0.985200000000     0          
H46      H      0.155700000000     0.750400000000     0.975500000000     0          
C47      C      0.514100000000     0.626800000000     0.186400000000     0          
H48      H      0.522000000000     0.596600000000     0.192700000000     0          
C49      C      0.514800000000     0.661600000000     0.219700000000     0          
H50      H      0.524500000000     0.655700000000     0.249600000000     0          
C51      C      0.514100000000     0.126800000000     0.686400000000     0          
H52      H      0.522000000000     0.096600000000     0.692700000000     0          
C53      C      0.514800000000     0.161600000000     0.719700000000     0          
H54      H      0.524500000000     0.155700000000     0.749600000000     0          
C55      C      0.017900000000     0.747200000000     0.731300000000     0          
C56      C      0.014100000000     0.126800000000     0.186400000000     0          
H57      H      0.022000000000     0.096600000000     0.192700000000     0          
C58      C      0.014800000000     0.161600000000     0.219700000000     0          
H59      H      0.024500000000     0.155700000000     0.249600000000     0          
C60      C      0.514100000000     0.373200000000     0.813600000000     0          
H61      H      0.522000000000     0.403400000000     0.807300000000     0          
C62      C      0.514800000000     0.338400000000     0.780300000000     0          
H63      H      0.524500000000     0.344300000000     0.750400000000     0          
C64      C      0.514100000000     0.873200000000     0.313600000000     0          
H65      H      0.522000000000     0.903400000000     0.307300000000     0          
C66      C      0.514800000000     0.838400000000     0.280300000000     0          
H67      H      0.524500000000     0.844300000000     0.250400000000     0          
C68      C      0.014100000000     0.373200000000     0.313600000000     0          
H69      H      0.022000000000     0.403400000000     0.307300000000     0          
C70      C      0.014800000000     0.338400000000     0.280300000000     0          
H71      H      0.024500000000     0.344300000000     0.250400000000     0          
C72      C      0.485900000000     0.373200000000     0.186400000000     0          
H73      H      0.478000000000     0.403400000000     0.192700000000     0          
C74      C      0.485200000000     0.338400000000     0.219700000000     0          
H75      H      0.475500000000     0.344300000000     0.249600000000     0          
C76      C      0.482100000000     0.252800000000     0.231300000000     0          
C77      C      0.485900000000     0.873200000000     0.686400000000     0          
H78      H      0.478000000000     0.903400000000     0.692700000000     0          
C79      C      0.485200000000     0.838400000000     0.719700000000     0          
H80      H      0.475500000000     0.844300000000     0.749600000000     0          
C81      C      0.985900000000     0.873200000000     0.186400000000     0          
H82      H      0.978000000000     0.903400000000     0.192700000000     0          
C83      C      0.985200000000     0.838400000000     0.219700000000     0          
H84      H      0.975500000000     0.844300000000     0.249600000000     0          
C85      C      0.482100000000     0.747200000000     0.768700000000     0          
C86      C      0.485900000000     0.126800000000     0.313600000000     0          
H87      H      0.478000000000     0.096600000000     0.307300000000     0          
C88      C      0.485200000000     0.161600000000     0.280300000000     0          
H89      H      0.475500000000     0.155700000000     0.250400000000     0          
C90      C      0.985900000000     0.626800000000     0.313600000000     0          
H91      H      0.978000000000     0.596600000000     0.307300000000     0          
C92      C      0.985200000000     0.661600000000     0.280300000000     0          
H93      H      0.975500000000     0.655700000000     0.250400000000     0          
C94      C      0.982100000000     0.247200000000     0.768700000000     0          
C95      C      0.186400000000     0.514100000000     0.626800000000     0          
H96      H      0.192700000000     0.522000000000     0.596600000000     0          
C97      C      0.219700000000     0.514800000000     0.661600000000     0          
H98      H      0.249600000000     0.524500000000     0.655700000000     0          
C99      C      0.186400000000     0.014100000000     0.126800000000     0          
H100     H      0.192700000000     0.022000000000     0.096600000000     0          
C101     C      0.219700000000     0.014800000000     0.161600000000     0          
H102     H      0.249600000000     0.024500000000     0.155700000000     0          
C103     C      0.686400000000     0.014100000000     0.626800000000     0          
H104     H      0.692700000000     0.022000000000     0.596600000000     0          
C105     C      0.719700000000     0.014800000000     0.661600000000     0          
H106     H      0.749600000000     0.024500000000     0.655700000000     0          
C107     C      0.731300000000     0.017900000000     0.747200000000     0          
C108     C      0.813600000000     0.014100000000     0.873200000000     0          
H109     H      0.807300000000     0.022000000000     0.903400000000     0          
C110     C      0.780300000000     0.014800000000     0.838400000000     0          
H111     H      0.750400000000     0.024500000000     0.844300000000     0          
C112     C      0.313600000000     0.514100000000     0.873200000000     0          
H113     H      0.307300000000     0.522000000000     0.903400000000     0          
C114     C      0.280300000000     0.514800000000     0.838400000000     0          
H115     H      0.250400000000     0.524500000000     0.844300000000     0          
C116     C      0.313600000000     0.014100000000     0.373200000000     0          
H117     H      0.307300000000     0.022000000000     0.403400000000     0          
C118     C      0.280300000000     0.014800000000     0.338400000000     0          
H119     H      0.250400000000     0.024500000000     0.344300000000     0          
C120     C      0.231300000000     0.482100000000     0.252800000000     0          
C121     C      0.186400000000     0.985900000000     0.873200000000     0          
H122     H      0.192700000000     0.978000000000     0.903400000000     0          
C123     C      0.219700000000     0.985200000000     0.838400000000     0          
H124     H      0.249600000000     0.975500000000     0.844300000000     0          
C125     C      0.686400000000     0.985900000000     0.373200000000     0          
H126     H      0.692700000000     0.978000000000     0.403400000000     0          
C127     C      0.719700000000     0.985200000000     0.338400000000     0          
H128     H      0.749600000000     0.975500000000     0.344300000000     0          
C129     C      0.813600000000     0.985900000000     0.126800000000     0          
H130     H      0.807300000000     0.978000000000     0.096600000000     0          
C131     C      0.780300000000     0.985200000000     0.161600000000     0          
H132     H      0.750400000000     0.975500000000     0.155700000000     0          
C133     C      0.768700000000     0.982100000000     0.247200000000     0          
C134     C      0.313600000000     0.985900000000     0.626800000000     0          
H135     H      0.307300000000     0.978000000000     0.596600000000     0          
C136     C      0.280300000000     0.985200000000     0.661600000000     0          
H137     H      0.250400000000     0.975500000000     0.655700000000     0          
C138     C      0.186400000000     0.626800000000     0.485900000000     0          
H139     H      0.192700000000     0.596600000000     0.478000000000     0          
C140     C      0.219700000000     0.661600000000     0.485200000000     0          
H141     H      0.249600000000     0.655700000000     0.475500000000     0          
C142     C      0.231300000000     0.747200000000     0.482100000000     0          
C143     C      0.186400000000     0.126800000000     0.985900000000     0          
H144     H      0.192700000000     0.096600000000     0.978000000000     0          
C145     C      0.219700000000     0.161600000000     0.985200000000     0          
H146     H      0.249600000000     0.155700000000     0.975500000000     0          
C147     C      0.231300000000     0.247200000000     0.982100000000     0          
C148     C      0.731300000000     0.747200000000     0.982100000000     0          
C149     C      0.686400000000     0.126800000000     0.485900000000     0          
H150     H      0.692700000000     0.096600000000     0.478000000000     0          
C151     C      0.719700000000     0.161600000000     0.485200000000     0          
H152     H      0.749600000000     0.155700000000     0.475500000000     0          
C153     C      0.731300000000     0.247200000000     0.482100000000     0          
C154     C      0.813600000000     0.373200000000     0.485900000000     0          
H155     H      0.807300000000     0.403400000000     0.478000000000     0          
C156     C      0.780300000000     0.338400000000     0.485200000000     0          
H157     H      0.750400000000     0.344300000000     0.475500000000     0          
C158     C      0.813600000000     0.873200000000     0.985900000000     0          
H159     H      0.807300000000     0.903400000000     0.978000000000     0          
C160     C      0.780300000000     0.838400000000     0.985200000000     0          
H161     H      0.750400000000     0.844300000000     0.975500000000     0          
C162     C      0.313600000000     0.373200000000     0.985900000000     0          
H163     H      0.307300000000     0.403400000000     0.978000000000     0          
C164     C      0.280300000000     0.338400000000     0.985200000000     0          
H165     H      0.250400000000     0.344300000000     0.975500000000     0          
C166     C      0.313600000000     0.873200000000     0.485900000000     0          
H167     H      0.307300000000     0.903400000000     0.478000000000     0          
C168     C      0.280300000000     0.838400000000     0.485200000000     0          
H169     H      0.250400000000     0.844300000000     0.475500000000     0          
C170     C      0.231300000000     0.252800000000     0.517900000000     0          
C171     C      0.186400000000     0.873200000000     0.014100000000     0          
H172     H      0.192700000000     0.903400000000     0.022000000000     0          
C173     C      0.219700000000     0.838400000000     0.014800000000     0          
H174     H      0.249600000000     0.844300000000     0.024500000000     0          
C175     C      0.686400000000     0.373200000000     0.014100000000     0          
H176     H      0.692700000000     0.403400000000     0.022000000000     0          
C177     C      0.719700000000     0.338400000000     0.014800000000     0          
H178     H      0.749600000000     0.344300000000     0.024500000000     0          
C179     C      0.731300000000     0.752800000000     0.517900000000     0          
C180     C      0.313600000000     0.626800000000     0.014100000000     0          
H181     H      0.307300000000     0.596600000000     0.022000000000     0          
C182     C      0.280300000000     0.661600000000     0.014800000000     0          
H183     H      0.250400000000     0.655700000000     0.024500000000     0          
C184     C      0.313600000000     0.126800000000     0.514100000000     0          
H185     H      0.307300000000     0.096600000000     0.522000000000     0          
C186     C      0.280300000000     0.161600000000     0.514800000000     0          
H187     H      0.250400000000     0.155700000000     0.524500000000     0          
C188     C      0.626800000000     0.014100000000     0.313600000000     0          
H189     H      0.596600000000     0.022000000000     0.307300000000     0          
C190     C      0.661600000000     0.014800000000     0.280300000000     0          
H191     H      0.655700000000     0.024500000000     0.250400000000     0          
C192     C      0.126800000000     0.014100000000     0.813600000000     0          
H193     H      0.096600000000     0.022000000000     0.807300000000     0          
C194     C      0.161600000000     0.014800000000     0.780300000000     0          
H195     H      0.155700000000     0.024500000000     0.750400000000     0          
C196     C      0.373200000000     0.014100000000     0.686400000000     0          
H197     H      0.403400000000     0.022000000000     0.692700000000     0          
C198     C      0.338400000000     0.014800000000     0.719700000000     0          
H199     H      0.344300000000     0.024500000000     0.749600000000     0          
C200     C      0.252800000000     0.017900000000     0.731300000000     0          
C201     C      0.752800000000     0.517900000000     0.731300000000     0          
C202     C      0.873200000000     0.014100000000     0.186400000000     0          
H203     H      0.903400000000     0.022000000000     0.192700000000     0          
C204     C      0.838400000000     0.014800000000     0.219700000000     0          
H205     H      0.844300000000     0.024500000000     0.249600000000     0          
C206     C      0.373200000000     0.485900000000     0.813600000000     0          
H207     H      0.403400000000     0.478000000000     0.807300000000     0          
C208     C      0.338400000000     0.485200000000     0.780300000000     0          
H209     H      0.344300000000     0.475500000000     0.750400000000     0          
C210     C      0.252800000000     0.482100000000     0.768700000000     0          
C211     C      0.373200000000     0.985900000000     0.313600000000     0          
H212     H      0.403400000000     0.978000000000     0.307300000000     0          
C213     C      0.338400000000     0.985200000000     0.280300000000     0          
H214     H      0.344300000000     0.975500000000     0.250400000000     0          
C215     C      0.252800000000     0.982100000000     0.268700000000     0          
C216     C      0.873200000000     0.985900000000     0.813600000000     0          
H217     H      0.903400000000     0.978000000000     0.807300000000     0          
C218     C      0.838400000000     0.985200000000     0.780300000000     0          
H219     H      0.844300000000     0.975500000000     0.750400000000     0          
C220     C      0.747200000000     0.482100000000     0.231300000000     0          
C221     C      0.626800000000     0.985900000000     0.686400000000     0          
H222     H      0.596600000000     0.978000000000     0.692700000000     0          
C223     C      0.661600000000     0.985200000000     0.719700000000     0          
H224     H      0.655700000000     0.975500000000     0.749600000000     0          
C225     C      0.126800000000     0.485900000000     0.686400000000     0          
H226     H      0.096600000000     0.478000000000     0.692700000000     0          
C227     C      0.161600000000     0.485200000000     0.719700000000     0          
H228     H      0.155700000000     0.475500000000     0.749600000000     0          
C229     C      0.126800000000     0.985900000000     0.186400000000     0          
H230     H      0.096600000000     0.978000000000     0.192700000000     0          
C231     C      0.161600000000     0.985200000000     0.219700000000     0          
H232     H      0.155700000000     0.975500000000     0.249600000000     0          
C233     C      0.514100000000     0.186400000000     0.373200000000     0          
H234     H      0.522000000000     0.192700000000     0.403400000000     0          
C235     C      0.514800000000     0.219700000000     0.338400000000     0          
H236     H      0.524500000000     0.249600000000     0.344300000000     0          
C237     C      0.014100000000     0.686400000000     0.373200000000     0          
H238     H      0.022000000000     0.692700000000     0.403400000000     0          
C239     C      0.014800000000     0.719700000000     0.338400000000     0          
H240     H      0.024500000000     0.749600000000     0.344300000000     0          
C241     C      0.514100000000     0.813600000000     0.626800000000     0          
H242     H      0.522000000000     0.807300000000     0.596600000000     0          
C243     C      0.514800000000     0.780300000000     0.661600000000     0          
H244     H      0.524500000000     0.750400000000     0.655700000000     0          
C245     C      0.514100000000     0.313600000000     0.126800000000     0          
H246     H      0.522000000000     0.307300000000     0.096600000000     0          
C247     C      0.514800000000     0.280300000000     0.161600000000     0          
H248     H      0.524500000000     0.250400000000     0.155700000000     0          
C249     C      0.014100000000     0.813600000000     0.126800000000     0          
H250     H      0.022000000000     0.807300000000     0.096600000000     0          
C251     C      0.014800000000     0.780300000000     0.161600000000     0          
H252     H      0.024500000000     0.750400000000     0.155700000000     0          
C253     C      0.017900000000     0.768700000000     0.247200000000     0          
C254     C      0.485900000000     0.186400000000     0.626800000000     0          
H255     H      0.478000000000     0.192700000000     0.596600000000     0          
C256     C      0.485200000000     0.219700000000     0.661600000000     0          
H257     H      0.475500000000     0.249600000000     0.655700000000     0          
C258     C      0.482100000000     0.231300000000     0.747200000000     0          
C259     C      0.485900000000     0.686400000000     0.126800000000     0          
H260     H      0.478000000000     0.692700000000     0.096600000000     0          
C261     C      0.485200000000     0.719700000000     0.161600000000     0          
H262     H      0.475500000000     0.749600000000     0.155700000000     0          
C263     C      0.482100000000     0.731300000000     0.247200000000     0          
C264     C      0.985900000000     0.186400000000     0.126800000000     0          
H265     H      0.978000000000     0.192700000000     0.096600000000     0          
C266     C      0.985200000000     0.219700000000     0.161600000000     0          
H267     H      0.975500000000     0.249600000000     0.155700000000     0          
C268     C      0.982100000000     0.231300000000     0.247200000000     0          
C269     C      0.485900000000     0.813600000000     0.373200000000     0          
H270     H      0.478000000000     0.807300000000     0.403400000000     0          
C271     C      0.485200000000     0.780300000000     0.338400000000     0          
H272     H      0.475500000000     0.750400000000     0.344300000000     0          
C273     C      0.485900000000     0.313600000000     0.873200000000     0          
H274     H      0.478000000000     0.307300000000     0.903400000000     0          
C275     C      0.485200000000     0.280300000000     0.838400000000     0          
H276     H      0.475500000000     0.250400000000     0.844300000000     0          
C277     C      0.985900000000     0.313600000000     0.373200000000     0          
H278     H      0.978000000000     0.307300000000     0.403400000000     0          
C279     C      0.985200000000     0.280300000000     0.338400000000     0          
H280     H      0.975500000000     0.250400000000     0.344300000000     0          
C281     C      0.626800000000     0.686400000000     0.985900000000     0          
H282     H      0.596600000000     0.692700000000     0.978000000000     0          
C283     C      0.661600000000     0.719700000000     0.985200000000     0          
H284     H      0.655700000000     0.749600000000     0.975500000000     0          
C285     C      0.626800000000     0.813600000000     0.514100000000     0          
H286     H      0.596600000000     0.807300000000     0.522000000000     0          
C287     C      0.661600000000     0.780300000000     0.514800000000     0          
H288     H      0.655700000000     0.750400000000     0.524500000000     0          
C289     C      0.747200000000     0.268700000000     0.017900000000     0          
C290     C      0.247200000000     0.768700000000     0.017900000000     0          
C291     C      0.126800000000     0.313600000000     0.514100000000     0          
H292     H      0.096600000000     0.307300000000     0.522000000000     0          
C293     C      0.161600000000     0.280300000000     0.514800000000     0          
H294     H      0.155700000000     0.250400000000     0.524500000000     0          
C295     C      0.873200000000     0.186400000000     0.014100000000     0          
H296     H      0.903400000000     0.192700000000     0.022000000000     0          
C297     C      0.838400000000     0.219700000000     0.014800000000     0          
H298     H      0.844300000000     0.249600000000     0.024500000000     0          
C299     C      0.873200000000     0.686400000000     0.514100000000     0          
H300     H      0.903400000000     0.692700000000     0.522000000000     0          
C301     C      0.838400000000     0.719700000000     0.514800000000     0          
H302     H      0.844300000000     0.749600000000     0.524500000000     0          
C303     C      0.985900000000     0.873200000000     0.813600000000     0          
H304     H      0.978000000000     0.903400000000     0.807300000000     0          
C305     C      0.985200000000     0.838400000000     0.780300000000     0          
H306     H      0.975500000000     0.844300000000     0.750400000000     0          
C307     C      0.982100000000     0.752800000000     0.768700000000     0          
C308     C      0.985900000000     0.626800000000     0.686400000000     0          
H309     H      0.978000000000     0.596600000000     0.692700000000     0          
C310     C      0.985200000000     0.661600000000     0.719700000000     0          
H311     H      0.975500000000     0.655700000000     0.749600000000     0          
C312     C      0.514100000000     0.626800000000     0.813600000000     0          
H313     H      0.522000000000     0.596600000000     0.807300000000     0          
C314     C      0.514800000000     0.661600000000     0.780300000000     0          
H315     H      0.524500000000     0.655700000000     0.750400000000     0          
C316     C      0.517900000000     0.247200000000     0.268700000000     0          
C317     C      0.014100000000     0.126800000000     0.813600000000     0          
H318     H      0.022000000000     0.096600000000     0.807300000000     0          
C319     C      0.014800000000     0.161600000000     0.780300000000     0          
H320     H      0.024500000000     0.155700000000     0.750400000000     0          
C321     C      0.517900000000     0.752800000000     0.731300000000     0          
C322     C      0.014100000000     0.373200000000     0.686400000000     0          
H323     H      0.022000000000     0.403400000000     0.692700000000     0          
C324     C      0.014800000000     0.338400000000     0.719700000000     0          
H325     H      0.024500000000     0.344300000000     0.749600000000     0          
C326     C      0.017900000000     0.252800000000     0.731300000000     0          
C327     C      0.813600000000     0.485900000000     0.373200000000     0          
H328     H      0.807300000000     0.478000000000     0.403400000000     0          
C329     C      0.780300000000     0.485200000000     0.338400000000     0          
H330     H      0.750400000000     0.475500000000     0.344300000000     0          
C331     C      0.768700000000     0.982100000000     0.752800000000     0          
C332     C      0.686400000000     0.485900000000     0.126800000000     0          
H333     H      0.692700000000     0.478000000000     0.096600000000     0          
C334     C      0.719700000000     0.485200000000     0.161600000000     0          
H335     H      0.749600000000     0.475500000000     0.155700000000     0          
C336     C      0.813600000000     0.514100000000     0.626800000000     0          
H337     H      0.807300000000     0.522000000000     0.596600000000     0          
C338     C      0.780300000000     0.514800000000     0.661600000000     0          
H339     H      0.750400000000     0.524500000000     0.655700000000     0          
C340     C      0.313600000000     0.514100000000     0.126800000000     0          
H341     H      0.307300000000     0.522000000000     0.096600000000     0          
C342     C      0.280300000000     0.514800000000     0.161600000000     0          
H343     H      0.250400000000     0.524500000000     0.155700000000     0          
C344     C      0.268700000000     0.517900000000     0.247200000000     0          
C345     C      0.186400000000     0.514100000000     0.373200000000     0          
H346     H      0.192700000000     0.522000000000     0.403400000000     0          
C347     C      0.219700000000     0.514800000000     0.338400000000     0          
H348     H      0.249600000000     0.524500000000     0.344300000000     0          
C349     C      0.686400000000     0.514100000000     0.873200000000     0          
H350     H      0.692700000000     0.522000000000     0.903400000000     0          
C351     C      0.719700000000     0.514800000000     0.838400000000     0          
H352     H      0.749600000000     0.524500000000     0.844300000000     0          
C353     C      0.731300000000     0.017900000000     0.252800000000     0          
C354     C      0.768700000000     0.252800000000     0.517900000000     0          
C355     C      0.768700000000     0.752800000000     0.017900000000     0          
C356     C      0.268700000000     0.252800000000     0.017900000000     0          
C357     C      0.268700000000     0.752800000000     0.517900000000     0          
C358     C      0.686400000000     0.626800000000     0.014100000000     0          
H359     H      0.692700000000     0.596600000000     0.022000000000     0          
C360     C      0.719700000000     0.661600000000     0.014800000000     0          
H361     H      0.749600000000     0.655700000000     0.024500000000     0          
C362     C      0.813600000000     0.626800000000     0.485900000000     0          
H363     H      0.807300000000     0.596600000000     0.478000000000     0          
C364     C      0.780300000000     0.661600000000     0.485200000000     0          
H365     H      0.750400000000     0.655700000000     0.475500000000     0          
C366     C      0.768700000000     0.747200000000     0.482100000000     0          
C367     C      0.813600000000     0.126800000000     0.985900000000     0          
H368     H      0.807300000000     0.096600000000     0.978000000000     0          
C369     C      0.780300000000     0.161600000000     0.985200000000     0          
H370     H      0.750400000000     0.155700000000     0.975500000000     0          
C371     C      0.268700000000     0.247200000000     0.482100000000     0          
C372     C      0.186400000000     0.373200000000     0.485900000000     0          
H373     H      0.192700000000     0.403400000000     0.478000000000     0          
C374     C      0.219700000000     0.338400000000     0.485200000000     0          
H375     H      0.249600000000     0.344300000000     0.475500000000     0          
C376     C      0.686400000000     0.873200000000     0.485900000000     0          
H377     H      0.692700000000     0.903400000000     0.478000000000     0          
C378     C      0.719700000000     0.838400000000     0.485200000000     0          
H379     H      0.749600000000     0.844300000000     0.475500000000     0          
C380     C      0.373200000000     0.485900000000     0.186400000000     0          
H381     H      0.403400000000     0.478000000000     0.192700000000     0          
C382     C      0.338400000000     0.485200000000     0.219700000000     0          
H383     H      0.344300000000     0.475500000000     0.249600000000     0          
C384     C      0.873200000000     0.485900000000     0.686400000000     0          
H385     H      0.903400000000     0.478000000000     0.692700000000     0          
C386     C      0.838400000000     0.485200000000     0.719700000000     0          
H387     H      0.844300000000     0.475500000000     0.749600000000     0          
C388     C      0.626800000000     0.485900000000     0.813600000000     0          
H389     H      0.596600000000     0.478000000000     0.807300000000     0          
C390     C      0.661600000000     0.485200000000     0.780300000000     0          
H391     H      0.655700000000     0.475500000000     0.750400000000     0          
C392     C      0.747200000000     0.482100000000     0.768700000000     0          
C393     C      0.126800000000     0.485900000000     0.313600000000     0          
H394     H      0.096600000000     0.478000000000     0.307300000000     0          
C395     C      0.161600000000     0.485200000000     0.280300000000     0          
H396     H      0.155700000000     0.475500000000     0.250400000000     0          
C397     C      0.247200000000     0.982100000000     0.768700000000     0          
C398     C      0.626800000000     0.514100000000     0.186400000000     0          
H399     H      0.596600000000     0.522000000000     0.192700000000     0          
C400     C      0.661600000000     0.514800000000     0.219700000000     0          
H401     H      0.655700000000     0.524500000000     0.249600000000     0          
C402     C      0.247200000000     0.517900000000     0.731300000000     0          
C403     C      0.247200000000     0.017900000000     0.231300000000     0          
C404     C      0.873200000000     0.514100000000     0.313600000000     0          
H405     H      0.903400000000     0.522000000000     0.307300000000     0          
C406     C      0.838400000000     0.514800000000     0.280300000000     0          
H407     H      0.844300000000     0.524500000000     0.250400000000     0          
C408     C      0.752800000000     0.517900000000     0.268700000000     0          
C409     C      0.985900000000     0.313600000000     0.626800000000     0          
H410     H      0.978000000000     0.307300000000     0.596600000000     0          
C411     C      0.985200000000     0.280300000000     0.661600000000     0          
H412     H      0.975500000000     0.250400000000     0.655700000000     0          
C413     C      0.485900000000     0.686400000000     0.873200000000     0          
H414     H      0.478000000000     0.692700000000     0.903400000000     0          
C415     C      0.485200000000     0.719700000000     0.838400000000     0          
H416     H      0.475500000000     0.749600000000     0.844300000000     0          
C417     C      0.985900000000     0.186400000000     0.873200000000     0          
H418     H      0.978000000000     0.192700000000     0.903400000000     0          
C419     C      0.985200000000     0.219700000000     0.838400000000     0          
H420     H      0.975500000000     0.249600000000     0.844300000000     0          
C421     C      0.982100000000     0.731300000000     0.252800000000     0          
C422     C      0.517900000000     0.768700000000     0.252800000000     0          
C423     C      0.517900000000     0.268700000000     0.752800000000     0          
C424     C      0.014100000000     0.813600000000     0.873200000000     0          
H425     H      0.022000000000     0.807300000000     0.903400000000     0          
C426     C      0.014800000000     0.780300000000     0.838400000000     0          
H427     H      0.024500000000     0.750400000000     0.844300000000     0          
C428     C      0.017900000000     0.268700000000     0.252800000000     0          
C429     C      0.014100000000     0.686400000000     0.626800000000     0          
H430     H      0.022000000000     0.692700000000     0.596600000000     0          
C431     C      0.014800000000     0.719700000000     0.661600000000     0          
H432     H      0.024500000000     0.749600000000     0.655700000000     0          
Zr433    Zr     0.500000000000     0.082790000000     0.500000000000     0          
Zr434    Zr     0.500000000000     0.582790000000     0.000000000000     0          
Zr435    Zr     0.000000000000     0.082790000000     0.000000000000     0          
Zr436    Zr     0.000000000000     0.582790000000     0.500000000000     0          
Zr437    Zr     0.500000000000     0.917210000000     0.500000000000     0          
Zr438    Zr     0.500000000000     0.417210000000     0.000000000000     0          
Zr439    Zr     0.000000000000     0.917210000000     0.000000000000     0          
Zr440    Zr     0.000000000000     0.417210000000     0.500000000000     0          
Zr441    Zr     0.500000000000     0.500000000000     0.082790000000     0          
Zr442    Zr     0.500000000000     0.000000000000     0.582790000000     0          
Zr443    Zr     0.000000000000     0.500000000000     0.582790000000     0          
Zr444    Zr     0.000000000000     0.000000000000     0.082790000000     0          
Zr445    Zr     0.500000000000     0.500000000000     0.917210000000     0          
Zr446    Zr     0.500000000000     0.000000000000     0.417210000000     0          
Zr447    Zr     0.000000000000     0.500000000000     0.417210000000     0          
Zr448    Zr     0.000000000000     0.000000000000     0.917210000000     0          
Zr449    Zr     0.082790000000     0.500000000000     0.500000000000     0          
Zr450    Zr     0.082790000000     0.000000000000     0.000000000000     0          
Zr451    Zr     0.582790000000     0.500000000000     0.000000000000     0          
Zr452    Zr     0.582790000000     0.000000000000     0.500000000000     0          
Zr453    Zr     0.917210000000     0.500000000000     0.500000000000     0          
Zr454    Zr     0.917210000000     0.000000000000     0.000000000000     0          
Zr455    Zr     0.417210000000     0.500000000000     0.000000000000     0          
Zr456    Zr     0.417210000000     0.000000000000     0.500000000000     0          
O457     O      0.564300000000     0.119460000000     0.500000000000     0          
O458     O      0.564300000000     0.619460000000     0.000000000000     0          
O459     O      0.064300000000     0.119460000000     0.000000000000     0          
O460     O      0.064300000000     0.619460000000     0.500000000000     0          
O461     O      0.435700000000     0.880540000000     0.500000000000     0          
O462     O      0.435700000000     0.380540000000     0.000000000000     0          
O463     O      0.935700000000     0.880540000000     0.000000000000     0          
O464     O      0.935700000000     0.380540000000     0.500000000000     0          
O465     O      0.435700000000     0.119460000000     0.500000000000     0          
O466     O      0.435700000000     0.619460000000     0.000000000000     0          
O467     O      0.935700000000     0.119460000000     0.000000000000     0          
O468     O      0.935700000000     0.619460000000     0.500000000000     0          
O469     O      0.564300000000     0.880540000000     0.500000000000     0          
O470     O      0.564300000000     0.380540000000     0.000000000000     0          
O471     O      0.064300000000     0.880540000000     0.000000000000     0          
O472     O      0.064300000000     0.380540000000     0.500000000000     0          
O473     O      0.500000000000     0.564300000000     0.119460000000     0          
O474     O      0.500000000000     0.064300000000     0.619460000000     0          
O475     O      0.000000000000     0.564300000000     0.619460000000     0          
O476     O      0.000000000000     0.064300000000     0.119460000000     0          
O477     O      0.500000000000     0.435700000000     0.880540000000     0          
O478     O      0.500000000000     0.935700000000     0.380540000000     0          
O479     O      0.000000000000     0.435700000000     0.380540000000     0          
O480     O      0.000000000000     0.935700000000     0.880540000000     0          
O481     O      0.500000000000     0.435700000000     0.119460000000     0          
O482     O      0.500000000000     0.935700000000     0.619460000000     0          
O483     O      0.000000000000     0.435700000000     0.619460000000     0          
O484     O      0.000000000000     0.935700000000     0.119460000000     0          
O485     O      0.500000000000     0.564300000000     0.880540000000     0          
O486     O      0.500000000000     0.064300000000     0.380540000000     0          
O487     O      0.000000000000     0.564300000000     0.380540000000     0          
O488     O      0.000000000000     0.064300000000     0.880540000000     0          
O489     O      0.119460000000     0.500000000000     0.564300000000     0          
O490     O      0.119460000000     0.000000000000     0.064300000000     0          
O491     O      0.619460000000     0.500000000000     0.064300000000     0          
O492     O      0.619460000000     0.000000000000     0.564300000000     0          
O493     O      0.880540000000     0.500000000000     0.435700000000     0          
O494     O      0.880540000000     0.000000000000     0.935700000000     0          
O495     O      0.380540000000     0.500000000000     0.935700000000     0          
O496     O      0.380540000000     0.000000000000     0.435700000000     0          
O497     O      0.119460000000     0.500000000000     0.435700000000     0          
O498     O      0.119460000000     0.000000000000     0.935700000000     0          
O499     O      0.619460000000     0.500000000000     0.935700000000     0          
O500     O      0.619460000000     0.000000000000     0.435700000000     0          
O501     O      0.880540000000     0.500000000000     0.564300000000     0          
O502     O      0.880540000000     0.000000000000     0.064300000000     0          
O503     O      0.380540000000     0.500000000000     0.064300000000     0          
O504     O      0.380540000000     0.000000000000     0.564300000000     0          
O505     O      0.119460000000     0.564300000000     0.500000000000     0          
O506     O      0.119460000000     0.064300000000     0.000000000000     0          
O507     O      0.619460000000     0.564300000000     0.000000000000     0          
O508     O      0.619460000000     0.064300000000     0.500000000000     0          
O509     O      0.880540000000     0.435700000000     0.500000000000     0          
O510     O      0.880540000000     0.935700000000     0.000000000000     0          
O511     O      0.380540000000     0.435700000000     0.000000000000     0          
O512     O      0.380540000000     0.935700000000     0.500000000000     0          
O513     O      0.119460000000     0.435700000000     0.500000000000     0          
O514     O      0.119460000000     0.935700000000     0.000000000000     0          
O515     O      0.619460000000     0.435700000000     0.000000000000     0          
O516     O      0.619460000000     0.935700000000     0.500000000000     0          
O517     O      0.880540000000     0.564300000000     0.500000000000     0          
O518     O      0.880540000000     0.064300000000     0.000000000000     0          
O519     O      0.380540000000     0.564300000000     0.000000000000     0          
O520     O      0.380540000000     0.064300000000     0.500000000000     0          
O521     O      0.564300000000     0.500000000000     0.880540000000     0          
O522     O      0.564300000000     0.000000000000     0.380540000000     0          
O523     O      0.064300000000     0.500000000000     0.380540000000     0          
O524     O      0.064300000000     0.000000000000     0.880540000000     0          
O525     O      0.435700000000     0.500000000000     0.119460000000     0          
O526     O      0.435700000000     0.000000000000     0.619460000000     0          
O527     O      0.935700000000     0.500000000000     0.619460000000     0          
O528     O      0.935700000000     0.000000000000     0.119460000000     0          
O529     O      0.435700000000     0.500000000000     0.880540000000     0          
O530     O      0.435700000000     0.000000000000     0.380540000000     0          
O531     O      0.935700000000     0.500000000000     0.380540000000     0          
O532     O      0.935700000000     0.000000000000     0.880540000000     0          
O533     O      0.564300000000     0.500000000000     0.119460000000     0          
O534     O      0.564300000000     0.000000000000     0.619460000000     0          
O535     O      0.064300000000     0.500000000000     0.619460000000     0          
O536     O      0.064300000000     0.000000000000     0.119460000000     0          
O537     O      0.500000000000     0.119460000000     0.435700000000     0          
O538     O      0.500000000000     0.619460000000     0.935700000000     0          
O539     O      0.000000000000     0.119460000000     0.935700000000     0          
O540     O      0.000000000000     0.619460000000     0.435700000000     0          
O541     O      0.500000000000     0.880540000000     0.564300000000     0          
O542     O      0.500000000000     0.380540000000     0.064300000000     0          
O543     O      0.000000000000     0.880540000000     0.064300000000     0          
O544     O      0.000000000000     0.380540000000     0.564300000000     0          
O545     O      0.500000000000     0.119460000000     0.564300000000     0          
O546     O      0.500000000000     0.619460000000     0.064300000000     0          
O547     O      0.000000000000     0.119460000000     0.064300000000     0          
O548     O      0.000000000000     0.619460000000     0.564300000000     0          
O549     O      0.500000000000     0.880540000000     0.435700000000     0          
O550     O      0.500000000000     0.380540000000     0.935700000000     0          
O551     O      0.000000000000     0.880540000000     0.935700000000     0          
O552     O      0.000000000000     0.380540000000     0.435700000000     0          
O553     O      0.540500000000     0.040500000000     0.459500000000     0          
O554     O      0.459500000000     0.959500000000     0.459500000000     0          
O555     O      0.459500000000     0.040500000000     0.540500000000     0          
O556     O      0.540500000000     0.959500000000     0.540500000000     0          
O557     O      0.459500000000     0.540500000000     0.040500000000     0          
O558     O      0.459500000000     0.459500000000     0.959500000000     0          
O559     O      0.540500000000     0.459500000000     0.040500000000     0          
O560     O      0.540500000000     0.540500000000     0.959500000000     0          
O561     O      0.040500000000     0.459500000000     0.540500000000     0          
O562     O      0.040500000000     0.959500000000     0.040500000000     0          
O563     O      0.959500000000     0.459500000000     0.459500000000     0          
O564     O      0.959500000000     0.959500000000     0.959500000000     0          
O565     O      0.040500000000     0.540500000000     0.459500000000     0          
O566     O      0.040500000000     0.040500000000     0.959500000000     0          
O567     O      0.959500000000     0.540500000000     0.540500000000     0          
O568     O      0.959500000000     0.040500000000     0.040500000000     0          
O569     O      0.040500000000     0.540500000000     0.540500000000     0          
O570     O      0.040500000000     0.040500000000     0.040500000000     0          
O571     O      0.959500000000     0.459500000000     0.540500000000     0          
O572     O      0.959500000000     0.959500000000     0.040500000000     0          
O573     O      0.040500000000     0.459500000000     0.459500000000     0          
O574     O      0.040500000000     0.959500000000     0.959500000000     0          
O575     O      0.959500000000     0.540500000000     0.459500000000     0          
O576     O      0.959500000000     0.040500000000     0.959500000000     0          
O577     O      0.540500000000     0.459500000000     0.959500000000     0          
O578     O      0.459500000000     0.459500000000     0.040500000000     0          
O579     O      0.459500000000     0.540500000000     0.959500000000     0          
O580     O      0.540500000000     0.540500000000     0.040500000000     0          
O581     O      0.459500000000     0.040500000000     0.459500000000     0          
O582     O      0.459500000000     0.959500000000     0.540500000000     0          
O583     O      0.540500000000     0.040500000000     0.540500000000     0          
O584     O      0.540500000000     0.959500000000     0.459500000000     0          
C585     C      0.604500000000     0.104500000000     0.500000000000     0          
C586     C      0.641900000000     0.141900000000     0.500000000000     0          
C587     C      0.706100000000     0.206100000000     0.500000000000     0          
C588     C      0.604500000000     0.604500000000     0.000000000000     0          
C589     C      0.641900000000     0.641900000000     0.000000000000     0          
C590     C      0.706100000000     0.706100000000     0.000000000000     0          
C591     C      0.395500000000     0.895500000000     0.500000000000     0          
C592     C      0.358100000000     0.858100000000     0.500000000000     0          
C593     C      0.293900000000     0.793900000000     0.500000000000     0          
C594     C      0.395500000000     0.395500000000     0.000000000000     0          
C595     C      0.358100000000     0.358100000000     0.000000000000     0          
C596     C      0.293900000000     0.293900000000     0.000000000000     0          
C597     C      0.395500000000     0.104500000000     0.500000000000     0          
C598     C      0.358100000000     0.141900000000     0.500000000000     0          
C599     C      0.293900000000     0.206100000000     0.500000000000     0          
C600     C      0.395500000000     0.604500000000     0.000000000000     0          
C601     C      0.358100000000     0.641900000000     0.000000000000     0          
C602     C      0.293900000000     0.706100000000     0.000000000000     0          
C603     C      0.604500000000     0.895500000000     0.500000000000     0          
C604     C      0.641900000000     0.858100000000     0.500000000000     0          
C605     C      0.706100000000     0.793900000000     0.500000000000     0          
C606     C      0.604500000000     0.395500000000     0.000000000000     0          
C607     C      0.641900000000     0.358100000000     0.000000000000     0          
C608     C      0.706100000000     0.293900000000     0.000000000000     0          
C609     C      0.500000000000     0.604500000000     0.104500000000     0          
C610     C      0.500000000000     0.641900000000     0.141900000000     0          
C611     C      0.500000000000     0.706100000000     0.206100000000     0          
C612     C      0.000000000000     0.604500000000     0.604500000000     0          
C613     C      0.000000000000     0.641900000000     0.641900000000     0          
C614     C      0.000000000000     0.706100000000     0.706100000000     0          
C615     C      0.500000000000     0.395500000000     0.895500000000     0          
C616     C      0.500000000000     0.358100000000     0.858100000000     0          
C617     C      0.500000000000     0.293900000000     0.793900000000     0          
C618     C      0.000000000000     0.395500000000     0.395500000000     0          
C619     C      0.000000000000     0.358100000000     0.358100000000     0          
C620     C      0.000000000000     0.293900000000     0.293900000000     0          
C621     C      0.500000000000     0.395500000000     0.104500000000     0          
C622     C      0.500000000000     0.358100000000     0.141900000000     0          
C623     C      0.500000000000     0.293900000000     0.206100000000     0          
C624     C      0.000000000000     0.395500000000     0.604500000000     0          
C625     C      0.000000000000     0.358100000000     0.641900000000     0          
C626     C      0.000000000000     0.293900000000     0.706100000000     0          
C627     C      0.500000000000     0.604500000000     0.895500000000     0          
C628     C      0.500000000000     0.641900000000     0.858100000000     0          
C629     C      0.500000000000     0.706100000000     0.793900000000     0          
C630     C      0.000000000000     0.604500000000     0.395500000000     0          
C631     C      0.000000000000     0.641900000000     0.358100000000     0          
C632     C      0.000000000000     0.706100000000     0.293900000000     0          
C633     C      0.104500000000     0.500000000000     0.604500000000     0          
C634     C      0.141900000000     0.500000000000     0.641900000000     0          
C635     C      0.206100000000     0.500000000000     0.706100000000     0          
C636     C      0.104500000000     0.000000000000     0.104500000000     0          
C637     C      0.141900000000     0.000000000000     0.141900000000     0          
C638     C      0.206100000000     0.000000000000     0.206100000000     0          
C639     C      0.895500000000     0.500000000000     0.395500000000     0          
C640     C      0.858100000000     0.500000000000     0.358100000000     0          
C641     C      0.793900000000     0.500000000000     0.293900000000     0          
C642     C      0.895500000000     0.000000000000     0.895500000000     0          
C643     C      0.858100000000     0.000000000000     0.858100000000     0          
C644     C      0.793900000000     0.000000000000     0.793900000000     0          
C645     C      0.104500000000     0.500000000000     0.395500000000     0          
C646     C      0.141900000000     0.500000000000     0.358100000000     0          
C647     C      0.206100000000     0.500000000000     0.293900000000     0          
C648     C      0.104500000000     0.000000000000     0.895500000000     0          
C649     C      0.141900000000     0.000000000000     0.858100000000     0          
C650     C      0.206100000000     0.000000000000     0.793900000000     0          
C651     C      0.895500000000     0.500000000000     0.604500000000     0          
C652     C      0.858100000000     0.500000000000     0.641900000000     0          
C653     C      0.793900000000     0.500000000000     0.706100000000     0          
C654     C      0.895500000000     0.000000000000     0.104500000000     0          
C655     C      0.858100000000     0.000000000000     0.141900000000     0          
C656     C      0.793900000000     0.000000000000     0.206100000000     0          
C657     C      0.104500000000     0.604500000000     0.500000000000     0          
C658     C      0.141900000000     0.641900000000     0.500000000000     0          
C659     C      0.206100000000     0.706100000000     0.500000000000     0          
C660     C      0.104500000000     0.104500000000     0.000000000000     0          
C661     C      0.141900000000     0.141900000000     0.000000000000     0          
C662     C      0.206100000000     0.206100000000     0.000000000000     0          
C663     C      0.895500000000     0.395500000000     0.500000000000     0          
C664     C      0.858100000000     0.358100000000     0.500000000000     0          
C665     C      0.793900000000     0.293900000000     0.500000000000     0          
C666     C      0.895500000000     0.895500000000     0.000000000000     0          
C667     C      0.858100000000     0.858100000000     0.000000000000     0          
C668     C      0.793900000000     0.793900000000     0.000000000000     0          
C669     C      0.104500000000     0.395500000000     0.500000000000     0          
C670     C      0.141900000000     0.358100000000     0.500000000000     0          
C671     C      0.206100000000     0.293900000000     0.500000000000     0          
C672     C      0.104500000000     0.895500000000     0.000000000000     0          
C673     C      0.141900000000     0.858100000000     0.000000000000     0          
C674     C      0.206100000000     0.793900000000     0.000000000000     0          
C675     C      0.895500000000     0.604500000000     0.500000000000     0          
C676     C      0.858100000000     0.641900000000     0.500000000000     0          
C677     C      0.793900000000     0.706100000000     0.500000000000     0          
C678     C      0.895500000000     0.104500000000     0.000000000000     0          
C679     C      0.858100000000     0.141900000000     0.000000000000     0          
C680     C      0.793900000000     0.206100000000     0.000000000000     0          
C681     C      0.604500000000     0.500000000000     0.895500000000     0          
C682     C      0.641900000000     0.500000000000     0.858100000000     0          
C683     C      0.706100000000     0.500000000000     0.793900000000     0          
C684     C      0.604500000000     0.000000000000     0.395500000000     0          
C685     C      0.641900000000     0.000000000000     0.358100000000     0          
C686     C      0.706100000000     0.000000000000     0.293900000000     0          
C687     C      0.395500000000     0.500000000000     0.104500000000     0          
C688     C      0.358100000000     0.500000000000     0.141900000000     0          
C689     C      0.293900000000     0.500000000000     0.206100000000     0          
C690     C      0.395500000000     0.000000000000     0.604500000000     0          
C691     C      0.358100000000     0.000000000000     0.641900000000     0          
C692     C      0.293900000000     0.000000000000     0.706100000000     0          
C693     C      0.395500000000     0.500000000000     0.895500000000     0          
C694     C      0.358100000000     0.500000000000     0.858100000000     0          
C695     C      0.293900000000     0.500000000000     0.793900000000     0          
C696     C      0.395500000000     0.000000000000     0.395500000000     0          
C697     C      0.358100000000     0.000000000000     0.358100000000     0          
C698     C      0.293900000000     0.000000000000     0.293900000000     0          
C699     C      0.604500000000     0.500000000000     0.104500000000     0          
C700     C      0.641900000000     0.500000000000     0.141900000000     0          
C701     C      0.706100000000     0.500000000000     0.206100000000     0          
C702     C      0.604500000000     0.000000000000     0.604500000000     0          
C703     C      0.641900000000     0.000000000000     0.641900000000     0          
C704     C      0.706100000000     0.000000000000     0.706100000000     0          
C705     C      0.500000000000     0.104500000000     0.395500000000     0          
C706     C      0.500000000000     0.141900000000     0.358100000000     0          
C707     C      0.500000000000     0.206100000000     0.293900000000     0          
C708     C      0.000000000000     0.104500000000     0.895500000000     0          
C709     C      0.000000000000     0.141900000000     0.858100000000     0          
C710     C      0.000000000000     0.206100000000     0.793900000000     0          
C711     C      0.500000000000     0.895500000000     0.604500000000     0          
C712     C      0.500000000000     0.858100000000     0.641900000000     0          
C713     C      0.500000000000     0.793900000000     0.706100000000     0          
C714     C      0.000000000000     0.895500000000     0.104500000000     0          
C715     C      0.000000000000     0.858100000000     0.141900000000     0          
C716     C      0.000000000000     0.793900000000     0.206100000000     0          
C717     C      0.500000000000     0.104500000000     0.604500000000     0          
C718     C      0.500000000000     0.141900000000     0.641900000000     0          
C719     C      0.500000000000     0.206100000000     0.706100000000     0          
C720     C      0.000000000000     0.104500000000     0.104500000000     0          
C721     C      0.000000000000     0.141900000000     0.141900000000     0          
C722     C      0.000000000000     0.206100000000     0.206100000000     0          
C723     C      0.500000000000     0.895500000000     0.395500000000     0          
C724     C      0.500000000000     0.858100000000     0.358100000000     0          
C725     C      0.500000000000     0.793900000000     0.293900000000     0          
C726     C      0.000000000000     0.895500000000     0.895500000000     0          
C727     C      0.000000000000     0.858100000000     0.858100000000     0          
C728     C      0.000000000000     0.793900000000     0.793900000000     0          
Br729    Br     0.750000000000     0.250000000000     0.579100000000     0          
Br730    Br     0.750000000000     0.750000000000     0.079100000000     0          
Br731    Br     0.250000000000     0.750000000000     0.579100000000     0          
Br732    Br     0.250000000000     0.250000000000     0.079100000000     0          
Br733    Br     0.250000000000     0.250000000000     0.420900000000     0          
Br734    Br     0.250000000000     0.750000000000     0.920900000000     0          
Br735    Br     0.750000000000     0.750000000000     0.420900000000     0          
Br736    Br     0.750000000000     0.250000000000     0.920900000000     0          
Br737    Br     0.579100000000     0.750000000000     0.250000000000     0          
Br738    Br     0.079100000000     0.750000000000     0.750000000000     0          
Br739    Br     0.579100000000     0.250000000000     0.750000000000     0          
Br740    Br     0.079100000000     0.250000000000     0.250000000000     0          
Br741    Br     0.420900000000     0.250000000000     0.250000000000     0          
Br742    Br     0.920900000000     0.250000000000     0.750000000000     0          
Br743    Br     0.420900000000     0.750000000000     0.750000000000     0          
Br744    Br     0.920900000000     0.750000000000     0.250000000000     0          
Br745    Br     0.250000000000     0.579100000000     0.750000000000     0          
Br746    Br     0.250000000000     0.079100000000     0.250000000000     0          
Br747    Br     0.750000000000     0.579100000000     0.250000000000     0          
Br748    Br     0.750000000000     0.079100000000     0.750000000000     0          
Br749    Br     0.250000000000     0.420900000000     0.250000000000     0          
Br750    Br     0.250000000000     0.920900000000     0.750000000000     0          
Br751    Br     0.750000000000     0.420900000000     0.750000000000     0          
Br752    Br     0.750000000000     0.920900000000     0.250000000000     0          
Br753    Br     0.250000000000     0.750000000000     0.420900000000     0          
Br754    Br     0.250000000000     0.250000000000     0.920900000000     0          
Br755    Br     0.750000000000     0.250000000000     0.420900000000     0          
Br756    Br     0.750000000000     0.750000000000     0.920900000000     0          
Br757    Br     0.250000000000     0.250000000000     0.579100000000     0          
Br758    Br     0.250000000000     0.750000000000     0.079100000000     0          
Br759    Br     0.750000000000     0.750000000000     0.579100000000     0          
Br760    Br     0.750000000000     0.250000000000     0.079100000000     0          
Br761    Br     0.750000000000     0.579100000000     0.750000000000     0          
Br762    Br     0.750000000000     0.079100000000     0.250000000000     0          
Br763    Br     0.250000000000     0.579100000000     0.250000000000     0          
Br764    Br     0.250000000000     0.079100000000     0.750000000000     0          
Br765    Br     0.250000000000     0.420900000000     0.750000000000     0          
Br766    Br     0.250000000000     0.920900000000     0.250000000000     0          
Br767    Br     0.750000000000     0.420900000000     0.250000000000     0          
Br768    Br     0.750000000000     0.920900000000     0.750000000000     0          
Br769    Br     0.579100000000     0.250000000000     0.250000000000     0          
Br770    Br     0.079100000000     0.250000000000     0.750000000000     0          
Br771    Br     0.579100000000     0.750000000000     0.750000000000     0          
Br772    Br     0.079100000000     0.750000000000     0.250000000000     0          
Br773    Br     0.420900000000     0.250000000000     0.750000000000     0          
Br774    Br     0.920900000000     0.250000000000     0.250000000000     0          
Br775    Br     0.420900000000     0.750000000000     0.250000000000     0          
Br776    Br     0.920900000000     0.750000000000     0.750000000000     0          


