data_EGAJEE

_audit_creation_method RASPA-1.0
_audit_creation_date 2020-11-2
_audit_author_name 'Rocio Bueno-Perez'

_cell_length_a    32.9862
_cell_length_b    32.9862
_cell_length_c    32.9862
_cell_angle_alpha 90
_cell_angle_beta  90
_cell_angle_gamma 90
_cell_volume      35891.9

_symmetry_cell_setting          cubic
_symmetry_space_group_name_Hall 'P 1'
_symmetry_space_group_name_H-M  'P 1'
_symmetry_Int_Tables_number     1

_symmetry_equiv_pos_as_xyz 'x,y,z'

loop_
_atom_site_label
_atom_site_type_symbol
_atom_site_fract_x
_atom_site_fract_y
_atom_site_fract_z
_atom_site_charge
O3       O      0.639560000000     0.541230000000     0.040150000000     0          
O4       O      0.690600000000     0.577010000000     0.075510000000     0          
O5       O      0.534600000000     0.882850000000     0.246720000000     0          
N1       N      0.533300000000     0.690700000000     0.161100000000     0          
C3       C      0.536500000000     0.804100000000     0.218500000000     0          
H1       H      0.561000000000     0.816600000000     0.224700000000     0          
C4       C      0.536800000000     0.766200000000     0.201400000000     0          
H2       H      0.561300000000     0.753400000000     0.195500000000     0          
C7       C      0.521700000000     0.656600000000     0.138800000000     0          
C8       C      0.553700000000     0.632100000000     0.121600000000     0          
C9       C      0.594800000000     0.647500000000     0.120400000000     0          
H3       H      0.599100000000     0.673200000000     0.131300000000     0          
C10      C      0.628900000000     0.627200000000     0.104300000000     0          
H4       H      0.655100000000     0.637500000000     0.106000000000     0          
C11      C      0.619800000000     0.589400000000     0.085200000000     0          
C12      C      0.652200000000     0.566900000000     0.064100000000     0          
C13      C      0.585100000000     0.570900000000     0.090500000000     0          
H5       H      0.582200000000     0.543700000000     0.083600000000     0          
C14      C      0.550500000000     0.593900000000     0.107400000000     0          
H6       H      0.525200000000     0.581400000000     0.108300000000     0          
H9?      H      0.557700000000     0.698600000000     0.165800000000     0          
Zr1      Zr     0.750000000000     0.447350000000     0.947350000000     0          
Zr2      Zr     0.674290000000     0.500000000000     0.000000000000     0          
O1       O      0.717630000000     0.453800000000     0.000000000000     0          
O2       O      0.708100000000     0.500000000000     0.058800000000     0          
C1       C      0.500000000000     0.866400000000     0.241900000000     0          
C2       C      0.500000000000     0.824900000000     0.227200000000     0          
C5       C      0.500000000000     0.746900000000     0.192900000000     0          
C6       C      0.500000000000     0.708400000000     0.173400000000     0          
O3       O      0.958770000000     0.139560000000     0.540150000000     0          
O4       O      0.922990000000     0.190600000000     0.575510000000     0          
O5       O      0.617150000000     0.034600000000     0.746720000000     0          
N1       N      0.809300000000     0.033300000000     0.661100000000     0          
C3       C      0.695900000000     0.036500000000     0.718500000000     0          
H1       H      0.683400000000     0.061000000000     0.724700000000     0          
C4       C      0.733800000000     0.036800000000     0.701400000000     0          
H2       H      0.746600000000     0.061300000000     0.695500000000     0          
C7       C      0.843400000000     0.021700000000     0.638800000000     0          
C8       C      0.867900000000     0.053700000000     0.621600000000     0          
C9       C      0.852500000000     0.094800000000     0.620400000000     0          
H3       H      0.826800000000     0.099100000000     0.631300000000     0          
C10      C      0.872800000000     0.128900000000     0.604300000000     0          
H4       H      0.862500000000     0.155100000000     0.606000000000     0          
C11      C      0.910600000000     0.119800000000     0.585200000000     0          
C12      C      0.933100000000     0.152200000000     0.564100000000     0          
C13      C      0.929100000000     0.085100000000     0.590500000000     0          
H5       H      0.956300000000     0.082200000000     0.583600000000     0          
C14      C      0.906100000000     0.050500000000     0.607400000000     0          
H6       H      0.918600000000     0.025200000000     0.608300000000     0          
H9?      H      0.801400000000     0.057700000000     0.665800000000     0          
Zr1      Zr     0.052650000000     0.250000000000     0.447350000000     0          
Zr2      Zr     0.000000000000     0.174290000000     0.500000000000     0          
O1       O      0.046200000000     0.217630000000     0.500000000000     0          
O2       O      0.000000000000     0.208100000000     0.558800000000     0          
C1       C      0.633600000000     0.000000000000     0.741900000000     0          
C2       C      0.675100000000     0.000000000000     0.727200000000     0          
C5       C      0.753100000000     0.000000000000     0.692900000000     0          
C6       C      0.791600000000     0.000000000000     0.673400000000     0          
O3       O      0.360440000000     0.458770000000     0.040150000000     0          
O4       O      0.309400000000     0.422990000000     0.075510000000     0          
O5       O      0.465400000000     0.117150000000     0.246720000000     0          
N1       N      0.466700000000     0.309300000000     0.161100000000     0          
C3       C      0.463500000000     0.195900000000     0.218500000000     0          
H1       H      0.439000000000     0.183400000000     0.224700000000     0          
C4       C      0.463200000000     0.233800000000     0.201400000000     0          
H2       H      0.438700000000     0.246600000000     0.195500000000     0          
C7       C      0.478300000000     0.343400000000     0.138800000000     0          
C8       C      0.446300000000     0.367900000000     0.121600000000     0          
C9       C      0.405200000000     0.352500000000     0.120400000000     0          
H3       H      0.400900000000     0.326800000000     0.131300000000     0          
C10      C      0.371100000000     0.372800000000     0.104300000000     0          
H4       H      0.344900000000     0.362500000000     0.106000000000     0          
C11      C      0.380200000000     0.410600000000     0.085200000000     0          
C12      C      0.347800000000     0.433100000000     0.064100000000     0          
C13      C      0.414900000000     0.429100000000     0.090500000000     0          
H5       H      0.417800000000     0.456300000000     0.083600000000     0          
C14      C      0.449500000000     0.406100000000     0.107400000000     0          
H6       H      0.474800000000     0.418600000000     0.108300000000     0          
H9?      H      0.442300000000     0.301400000000     0.165800000000     0          
Zr1      Zr     0.250000000000     0.552650000000     0.947350000000     0          
Zr2      Zr     0.325710000000     0.500000000000     0.000000000000     0          
O1       O      0.282370000000     0.546200000000     0.000000000000     0          
O2       O      0.291900000000     0.500000000000     0.058800000000     0          
C1       C      0.500000000000     0.133600000000     0.241900000000     0          
C2       C      0.500000000000     0.175100000000     0.227200000000     0          
C5       C      0.500000000000     0.253100000000     0.192900000000     0          
C6       C      0.500000000000     0.291600000000     0.173400000000     0          
O3       O      0.041230000000     0.860440000000     0.540150000000     0          
O4       O      0.077010000000     0.809400000000     0.575510000000     0          
O5       O      0.382850000000     0.965400000000     0.746720000000     0          
N1       N      0.190700000000     0.966700000000     0.661100000000     0          
C3       C      0.304100000000     0.963500000000     0.718500000000     0          
H1       H      0.316600000000     0.939000000000     0.724700000000     0          
C4       C      0.266200000000     0.963200000000     0.701400000000     0          
H2       H      0.253400000000     0.938700000000     0.695500000000     0          
C7       C      0.156600000000     0.978300000000     0.638800000000     0          
C8       C      0.132100000000     0.946300000000     0.621600000000     0          
C9       C      0.147500000000     0.905200000000     0.620400000000     0          
H3       H      0.173200000000     0.900900000000     0.631300000000     0          
C10      C      0.127200000000     0.871100000000     0.604300000000     0          
H4       H      0.137500000000     0.844900000000     0.606000000000     0          
C11      C      0.089400000000     0.880200000000     0.585200000000     0          
C12      C      0.066900000000     0.847800000000     0.564100000000     0          
C13      C      0.070900000000     0.914900000000     0.590500000000     0          
H5       H      0.043700000000     0.917800000000     0.583600000000     0          
C14      C      0.093900000000     0.949500000000     0.607400000000     0          
H6       H      0.081400000000     0.974800000000     0.608300000000     0          
H9?      H      0.198600000000     0.942300000000     0.665800000000     0          
Zr1      Zr     0.947350000000     0.750000000000     0.447350000000     0          
Zr2      Zr     0.000000000000     0.825710000000     0.500000000000     0          
O1       O      0.953800000000     0.782370000000     0.500000000000     0          
O2       O      0.000000000000     0.791900000000     0.558800000000     0          
C1       C      0.366400000000     0.000000000000     0.741900000000     0          
C2       C      0.324900000000     0.000000000000     0.727200000000     0          
C5       C      0.246900000000     0.000000000000     0.692900000000     0          
C6       C      0.208400000000     0.000000000000     0.673400000000     0          
O3       O      0.639560000000     0.458770000000     0.959850000000     0          
O4       O      0.690600000000     0.422990000000     0.924490000000     0          
O5       O      0.534600000000     0.117150000000     0.753280000000     0          
N1       N      0.533300000000     0.309300000000     0.838900000000     0          
C3       C      0.536500000000     0.195900000000     0.781500000000     0          
H1       H      0.561000000000     0.183400000000     0.775300000000     0          
C4       C      0.536800000000     0.233800000000     0.798600000000     0          
H2       H      0.561300000000     0.246600000000     0.804500000000     0          
C7       C      0.521700000000     0.343400000000     0.861200000000     0          
C8       C      0.553700000000     0.367900000000     0.878400000000     0          
C9       C      0.594800000000     0.352500000000     0.879600000000     0          
H3       H      0.599100000000     0.326800000000     0.868700000000     0          
C10      C      0.628900000000     0.372800000000     0.895700000000     0          
H4       H      0.655100000000     0.362500000000     0.894000000000     0          
C11      C      0.619800000000     0.410600000000     0.914800000000     0          
C12      C      0.652200000000     0.433100000000     0.935900000000     0          
C13      C      0.585100000000     0.429100000000     0.909500000000     0          
H5       H      0.582200000000     0.456300000000     0.916400000000     0          
C14      C      0.550500000000     0.406100000000     0.892600000000     0          
H6       H      0.525200000000     0.418600000000     0.891700000000     0          
H9?      H      0.557700000000     0.301400000000     0.834200000000     0          
Zr1      Zr     0.750000000000     0.552650000000     0.052650000000     0          
O1       O      0.717630000000     0.546200000000     0.000000000000     0          
O2       O      0.708100000000     0.500000000000     0.941200000000     0          
C1       C      0.500000000000     0.133600000000     0.758100000000     0          
C2       C      0.500000000000     0.175100000000     0.772800000000     0          
C5       C      0.500000000000     0.253100000000     0.807100000000     0          
C6       C      0.500000000000     0.291600000000     0.826600000000     0          
O3       O      0.041230000000     0.139560000000     0.459850000000     0          
O4       O      0.077010000000     0.190600000000     0.424490000000     0          
O5       O      0.382850000000     0.034600000000     0.253280000000     0          
N1       N      0.190700000000     0.033300000000     0.338900000000     0          
C3       C      0.304100000000     0.036500000000     0.281500000000     0          
H1       H      0.316600000000     0.061000000000     0.275300000000     0          
C4       C      0.266200000000     0.036800000000     0.298600000000     0          
H2       H      0.253400000000     0.061300000000     0.304500000000     0          
C7       C      0.156600000000     0.021700000000     0.361200000000     0          
C8       C      0.132100000000     0.053700000000     0.378400000000     0          
C9       C      0.147500000000     0.094800000000     0.379600000000     0          
H3       H      0.173200000000     0.099100000000     0.368700000000     0          
C10      C      0.127200000000     0.128900000000     0.395700000000     0          
H4       H      0.137500000000     0.155100000000     0.394000000000     0          
C11      C      0.089400000000     0.119800000000     0.414800000000     0          
C12      C      0.066900000000     0.152200000000     0.435900000000     0          
C13      C      0.070900000000     0.085100000000     0.409500000000     0          
H5       H      0.043700000000     0.082200000000     0.416400000000     0          
C14      C      0.093900000000     0.050500000000     0.392600000000     0          
H6       H      0.081400000000     0.025200000000     0.391700000000     0          
H9?      H      0.198600000000     0.057700000000     0.334200000000     0          
Zr1      Zr     0.947350000000     0.250000000000     0.552650000000     0          
O1       O      0.953800000000     0.217630000000     0.500000000000     0          
O2       O      0.000000000000     0.208100000000     0.441200000000     0          
C1       C      0.366400000000     0.000000000000     0.258100000000     0          
C2       C      0.324900000000     0.000000000000     0.272800000000     0          
C5       C      0.246900000000     0.000000000000     0.307100000000     0          
C6       C      0.208400000000     0.000000000000     0.326600000000     0          
O3       O      0.360440000000     0.541230000000     0.959850000000     0          
O4       O      0.309400000000     0.577010000000     0.924490000000     0          
O5       O      0.465400000000     0.882850000000     0.753280000000     0          
N1       N      0.466700000000     0.690700000000     0.838900000000     0          
C3       C      0.463500000000     0.804100000000     0.781500000000     0          
H1       H      0.439000000000     0.816600000000     0.775300000000     0          
C4       C      0.463200000000     0.766200000000     0.798600000000     0          
H2       H      0.438700000000     0.753400000000     0.804500000000     0          
C7       C      0.478300000000     0.656600000000     0.861200000000     0          
C8       C      0.446300000000     0.632100000000     0.878400000000     0          
C9       C      0.405200000000     0.647500000000     0.879600000000     0          
H3       H      0.400900000000     0.673200000000     0.868700000000     0          
C10      C      0.371100000000     0.627200000000     0.895700000000     0          
H4       H      0.344900000000     0.637500000000     0.894000000000     0          
C11      C      0.380200000000     0.589400000000     0.914800000000     0          
C12      C      0.347800000000     0.566900000000     0.935900000000     0          
C13      C      0.414900000000     0.570900000000     0.909500000000     0          
H5       H      0.417800000000     0.543700000000     0.916400000000     0          
C14      C      0.449500000000     0.593900000000     0.892600000000     0          
H6       H      0.474800000000     0.581400000000     0.891700000000     0          
H9?      H      0.442300000000     0.698600000000     0.834200000000     0          
Zr1      Zr     0.250000000000     0.447350000000     0.052650000000     0          
O1       O      0.282370000000     0.453800000000     0.000000000000     0          
O2       O      0.291900000000     0.500000000000     0.941200000000     0          
C1       C      0.500000000000     0.866400000000     0.758100000000     0          
C2       C      0.500000000000     0.824900000000     0.772800000000     0          
C5       C      0.500000000000     0.746900000000     0.807100000000     0          
C6       C      0.500000000000     0.708400000000     0.826600000000     0          
O3       O      0.958770000000     0.860440000000     0.459850000000     0          
O4       O      0.922990000000     0.809400000000     0.424490000000     0          
O5       O      0.617150000000     0.965400000000     0.253280000000     0          
N1       N      0.809300000000     0.966700000000     0.338900000000     0          
C3       C      0.695900000000     0.963500000000     0.281500000000     0          
H1       H      0.683400000000     0.939000000000     0.275300000000     0          
C4       C      0.733800000000     0.963200000000     0.298600000000     0          
H2       H      0.746600000000     0.938700000000     0.304500000000     0          
C7       C      0.843400000000     0.978300000000     0.361200000000     0          
C8       C      0.867900000000     0.946300000000     0.378400000000     0          
C9       C      0.852500000000     0.905200000000     0.379600000000     0          
H3       H      0.826800000000     0.900900000000     0.368700000000     0          
C10      C      0.872800000000     0.871100000000     0.395700000000     0          
H4       H      0.862500000000     0.844900000000     0.394000000000     0          
C11      C      0.910600000000     0.880200000000     0.414800000000     0          
C12      C      0.933100000000     0.847800000000     0.435900000000     0          
C13      C      0.929100000000     0.914900000000     0.409500000000     0          
H5       H      0.956300000000     0.917800000000     0.416400000000     0          
C14      C      0.906100000000     0.949500000000     0.392600000000     0          
H6       H      0.918600000000     0.974800000000     0.391700000000     0          
H9?      H      0.801400000000     0.942300000000     0.334200000000     0          
Zr1      Zr     0.052650000000     0.750000000000     0.552650000000     0          
O1       O      0.046200000000     0.782370000000     0.500000000000     0          
O2       O      0.000000000000     0.791900000000     0.441200000000     0          
C1       C      0.633600000000     0.000000000000     0.258100000000     0          
C2       C      0.675100000000     0.000000000000     0.272800000000     0          
C5       C      0.753100000000     0.000000000000     0.307100000000     0          
C6       C      0.791600000000     0.000000000000     0.326600000000     0          
O3       O      0.040150000000     0.639560000000     0.541230000000     0          
O4       O      0.075510000000     0.690600000000     0.577010000000     0          
O5       O      0.246720000000     0.534600000000     0.882850000000     0          
N1       N      0.161100000000     0.533300000000     0.690700000000     0          
C3       C      0.218500000000     0.536500000000     0.804100000000     0          
H1       H      0.224700000000     0.561000000000     0.816600000000     0          
C4       C      0.201400000000     0.536800000000     0.766200000000     0          
H2       H      0.195500000000     0.561300000000     0.753400000000     0          
C7       C      0.138800000000     0.521700000000     0.656600000000     0          
C8       C      0.121600000000     0.553700000000     0.632100000000     0          
C9       C      0.120400000000     0.594800000000     0.647500000000     0          
H3       H      0.131300000000     0.599100000000     0.673200000000     0          
C10      C      0.104300000000     0.628900000000     0.627200000000     0          
H4       H      0.106000000000     0.655100000000     0.637500000000     0          
C11      C      0.085200000000     0.619800000000     0.589400000000     0          
C12      C      0.064100000000     0.652200000000     0.566900000000     0          
C13      C      0.090500000000     0.585100000000     0.570900000000     0          
H5       H      0.083600000000     0.582200000000     0.543700000000     0          
C14      C      0.107400000000     0.550500000000     0.593900000000     0          
H6       H      0.108300000000     0.525200000000     0.581400000000     0          
H9?      H      0.165800000000     0.557700000000     0.698600000000     0          
Zr2      Zr     0.000000000000     0.674290000000     0.500000000000     0          
O1       O      0.000000000000     0.717630000000     0.453800000000     0          
O2       O      0.058800000000     0.708100000000     0.500000000000     0          
C1       C      0.241900000000     0.500000000000     0.866400000000     0          
C2       C      0.227200000000     0.500000000000     0.824900000000     0          
C5       C      0.192900000000     0.500000000000     0.746900000000     0          
C6       C      0.173400000000     0.500000000000     0.708400000000     0          
O3       O      0.860440000000     0.540150000000     0.041230000000     0          
O4       O      0.809400000000     0.575510000000     0.077010000000     0          
O5       O      0.965400000000     0.746720000000     0.382850000000     0          
N1       N      0.966700000000     0.661100000000     0.190700000000     0          
C3       C      0.963500000000     0.718500000000     0.304100000000     0          
H1       H      0.939000000000     0.724700000000     0.316600000000     0          
C4       C      0.963200000000     0.701400000000     0.266200000000     0          
H2       H      0.938700000000     0.695500000000     0.253400000000     0          
C7       C      0.978300000000     0.638800000000     0.156600000000     0          
C8       C      0.946300000000     0.621600000000     0.132100000000     0          
C9       C      0.905200000000     0.620400000000     0.147500000000     0          
H3       H      0.900900000000     0.631300000000     0.173200000000     0          
C10      C      0.871100000000     0.604300000000     0.127200000000     0          
H4       H      0.844900000000     0.606000000000     0.137500000000     0          
C11      C      0.880200000000     0.585200000000     0.089400000000     0          
C12      C      0.847800000000     0.564100000000     0.066900000000     0          
C13      C      0.914900000000     0.590500000000     0.070900000000     0          
H5       H      0.917800000000     0.583600000000     0.043700000000     0          
C14      C      0.949500000000     0.607400000000     0.093900000000     0          
H6       H      0.974800000000     0.608300000000     0.081400000000     0          
H9?      H      0.942300000000     0.665800000000     0.198600000000     0          
Zr2      Zr     0.825710000000     0.500000000000     0.000000000000     0          
O1       O      0.782370000000     0.500000000000     0.953800000000     0          
O2       O      0.791900000000     0.558800000000     0.000000000000     0          
C1       C      0.000000000000     0.741900000000     0.366400000000     0          
C2       C      0.000000000000     0.727200000000     0.324900000000     0          
C5       C      0.000000000000     0.692900000000     0.246900000000     0          
C6       C      0.000000000000     0.673400000000     0.208400000000     0          
O3       O      0.959850000000     0.360440000000     0.541230000000     0          
O4       O      0.924490000000     0.309400000000     0.577010000000     0          
O5       O      0.753280000000     0.465400000000     0.882850000000     0          
N1       N      0.838900000000     0.466700000000     0.690700000000     0          
C3       C      0.781500000000     0.463500000000     0.804100000000     0          
H1       H      0.775300000000     0.439000000000     0.816600000000     0          
C4       C      0.798600000000     0.463200000000     0.766200000000     0          
H2       H      0.804500000000     0.438700000000     0.753400000000     0          
C7       C      0.861200000000     0.478300000000     0.656600000000     0          
C8       C      0.878400000000     0.446300000000     0.632100000000     0          
C9       C      0.879600000000     0.405200000000     0.647500000000     0          
H3       H      0.868700000000     0.400900000000     0.673200000000     0          
C10      C      0.895700000000     0.371100000000     0.627200000000     0          
H4       H      0.894000000000     0.344900000000     0.637500000000     0          
C11      C      0.914800000000     0.380200000000     0.589400000000     0          
C12      C      0.935900000000     0.347800000000     0.566900000000     0          
C13      C      0.909500000000     0.414900000000     0.570900000000     0          
H5       H      0.916400000000     0.417800000000     0.543700000000     0          
C14      C      0.892600000000     0.449500000000     0.593900000000     0          
H6       H      0.891700000000     0.474800000000     0.581400000000     0          
H9?      H      0.834200000000     0.442300000000     0.698600000000     0          
Zr2      Zr     0.000000000000     0.325710000000     0.500000000000     0          
O1       O      0.000000000000     0.282370000000     0.453800000000     0          
O2       O      0.941200000000     0.291900000000     0.500000000000     0          
C1       C      0.758100000000     0.500000000000     0.866400000000     0          
C2       C      0.772800000000     0.500000000000     0.824900000000     0          
C5       C      0.807100000000     0.500000000000     0.746900000000     0          
C6       C      0.826600000000     0.500000000000     0.708400000000     0          
O3       O      0.139560000000     0.459850000000     0.041230000000     0          
O4       O      0.190600000000     0.424490000000     0.077010000000     0          
O5       O      0.034600000000     0.253280000000     0.382850000000     0          
N1       N      0.033300000000     0.338900000000     0.190700000000     0          
C3       C      0.036500000000     0.281500000000     0.304100000000     0          
H1       H      0.061000000000     0.275300000000     0.316600000000     0          
C4       C      0.036800000000     0.298600000000     0.266200000000     0          
H2       H      0.061300000000     0.304500000000     0.253400000000     0          
C7       C      0.021700000000     0.361200000000     0.156600000000     0          
C8       C      0.053700000000     0.378400000000     0.132100000000     0          
C9       C      0.094800000000     0.379600000000     0.147500000000     0          
H3       H      0.099100000000     0.368700000000     0.173200000000     0          
C10      C      0.128900000000     0.395700000000     0.127200000000     0          
H4       H      0.155100000000     0.394000000000     0.137500000000     0          
C11      C      0.119800000000     0.414800000000     0.089400000000     0          
C12      C      0.152200000000     0.435900000000     0.066900000000     0          
C13      C      0.085100000000     0.409500000000     0.070900000000     0          
H5       H      0.082200000000     0.416400000000     0.043700000000     0          
C14      C      0.050500000000     0.392600000000     0.093900000000     0          
H6       H      0.025200000000     0.391700000000     0.081400000000     0          
H9?      H      0.057700000000     0.334200000000     0.198600000000     0          
Zr2      Zr     0.174290000000     0.500000000000     0.000000000000     0          
O1       O      0.217630000000     0.500000000000     0.953800000000     0          
O2       O      0.208100000000     0.441200000000     0.000000000000     0          
C1       C      0.000000000000     0.258100000000     0.366400000000     0          
C2       C      0.000000000000     0.272800000000     0.324900000000     0          
C5       C      0.000000000000     0.307100000000     0.246900000000     0          
C6       C      0.000000000000     0.326600000000     0.208400000000     0          
O3       O      0.040150000000     0.360440000000     0.458770000000     0          
O4       O      0.075510000000     0.309400000000     0.422990000000     0          
O5       O      0.246720000000     0.465400000000     0.117150000000     0          
N1       N      0.161100000000     0.466700000000     0.309300000000     0          
C3       C      0.218500000000     0.463500000000     0.195900000000     0          
H1       H      0.224700000000     0.439000000000     0.183400000000     0          
C4       C      0.201400000000     0.463200000000     0.233800000000     0          
H2       H      0.195500000000     0.438700000000     0.246600000000     0          
C7       C      0.138800000000     0.478300000000     0.343400000000     0          
C8       C      0.121600000000     0.446300000000     0.367900000000     0          
C9       C      0.120400000000     0.405200000000     0.352500000000     0          
H3       H      0.131300000000     0.400900000000     0.326800000000     0          
C10      C      0.104300000000     0.371100000000     0.372800000000     0          
H4       H      0.106000000000     0.344900000000     0.362500000000     0          
C11      C      0.085200000000     0.380200000000     0.410600000000     0          
C12      C      0.064100000000     0.347800000000     0.433100000000     0          
C13      C      0.090500000000     0.414900000000     0.429100000000     0          
H5       H      0.083600000000     0.417800000000     0.456300000000     0          
C14      C      0.107400000000     0.449500000000     0.406100000000     0          
H6       H      0.108300000000     0.474800000000     0.418600000000     0          
H9?      H      0.165800000000     0.442300000000     0.301400000000     0          
O1       O      0.000000000000     0.282370000000     0.546200000000     0          
O2       O      0.058800000000     0.291900000000     0.500000000000     0          
C1       C      0.241900000000     0.500000000000     0.133600000000     0          
C2       C      0.227200000000     0.500000000000     0.175100000000     0          
C5       C      0.192900000000     0.500000000000     0.253100000000     0          
C6       C      0.173400000000     0.500000000000     0.291600000000     0          
O3       O      0.139560000000     0.540150000000     0.958770000000     0          
O4       O      0.190600000000     0.575510000000     0.922990000000     0          
O5       O      0.034600000000     0.746720000000     0.617150000000     0          
N1       N      0.033300000000     0.661100000000     0.809300000000     0          
C3       C      0.036500000000     0.718500000000     0.695900000000     0          
H1       H      0.061000000000     0.724700000000     0.683400000000     0          
C4       C      0.036800000000     0.701400000000     0.733800000000     0          
H2       H      0.061300000000     0.695500000000     0.746600000000     0          
C7       C      0.021700000000     0.638800000000     0.843400000000     0          
C8       C      0.053700000000     0.621600000000     0.867900000000     0          
C9       C      0.094800000000     0.620400000000     0.852500000000     0          
H3       H      0.099100000000     0.631300000000     0.826800000000     0          
C10      C      0.128900000000     0.604300000000     0.872800000000     0          
H4       H      0.155100000000     0.606000000000     0.862500000000     0          
C11      C      0.119800000000     0.585200000000     0.910600000000     0          
C12      C      0.152200000000     0.564100000000     0.933100000000     0          
C13      C      0.085100000000     0.590500000000     0.929100000000     0          
H5       H      0.082200000000     0.583600000000     0.956300000000     0          
C14      C      0.050500000000     0.607400000000     0.906100000000     0          
H6       H      0.025200000000     0.608300000000     0.918600000000     0          
H9?      H      0.057700000000     0.665800000000     0.801400000000     0          
O1       O      0.217630000000     0.500000000000     0.046200000000     0          
O2       O      0.208100000000     0.558800000000     0.000000000000     0          
C1       C      0.000000000000     0.741900000000     0.633600000000     0          
C2       C      0.000000000000     0.727200000000     0.675100000000     0          
C5       C      0.000000000000     0.692900000000     0.753100000000     0          
C6       C      0.000000000000     0.673400000000     0.791600000000     0          
O3       O      0.959850000000     0.639560000000     0.458770000000     0          
O4       O      0.924490000000     0.690600000000     0.422990000000     0          
O5       O      0.753280000000     0.534600000000     0.117150000000     0          
N1       N      0.838900000000     0.533300000000     0.309300000000     0          
C3       C      0.781500000000     0.536500000000     0.195900000000     0          
H1       H      0.775300000000     0.561000000000     0.183400000000     0          
C4       C      0.798600000000     0.536800000000     0.233800000000     0          
H2       H      0.804500000000     0.561300000000     0.246600000000     0          
C7       C      0.861200000000     0.521700000000     0.343400000000     0          
C8       C      0.878400000000     0.553700000000     0.367900000000     0          
C9       C      0.879600000000     0.594800000000     0.352500000000     0          
H3       H      0.868700000000     0.599100000000     0.326800000000     0          
C10      C      0.895700000000     0.628900000000     0.372800000000     0          
H4       H      0.894000000000     0.655100000000     0.362500000000     0          
C11      C      0.914800000000     0.619800000000     0.410600000000     0          
C12      C      0.935900000000     0.652200000000     0.433100000000     0          
C13      C      0.909500000000     0.585100000000     0.429100000000     0          
H5       H      0.916400000000     0.582200000000     0.456300000000     0          
C14      C      0.892600000000     0.550500000000     0.406100000000     0          
H6       H      0.891700000000     0.525200000000     0.418600000000     0          
H9?      H      0.834200000000     0.557700000000     0.301400000000     0          
O1       O      0.000000000000     0.717630000000     0.546200000000     0          
O2       O      0.941200000000     0.708100000000     0.500000000000     0          
C1       C      0.758100000000     0.500000000000     0.133600000000     0          
C2       C      0.772800000000     0.500000000000     0.175100000000     0          
C5       C      0.807100000000     0.500000000000     0.253100000000     0          
C6       C      0.826600000000     0.500000000000     0.291600000000     0          
O3       O      0.860440000000     0.459850000000     0.958770000000     0          
O4       O      0.809400000000     0.424490000000     0.922990000000     0          
O5       O      0.965400000000     0.253280000000     0.617150000000     0          
N1       N      0.966700000000     0.338900000000     0.809300000000     0          
C3       C      0.963500000000     0.281500000000     0.695900000000     0          
H1       H      0.939000000000     0.275300000000     0.683400000000     0          
C4       C      0.963200000000     0.298600000000     0.733800000000     0          
H2       H      0.938700000000     0.304500000000     0.746600000000     0          
C7       C      0.978300000000     0.361200000000     0.843400000000     0          
C8       C      0.946300000000     0.378400000000     0.867900000000     0          
C9       C      0.905200000000     0.379600000000     0.852500000000     0          
H3       H      0.900900000000     0.368700000000     0.826800000000     0          
C10      C      0.871100000000     0.395700000000     0.872800000000     0          
H4       H      0.844900000000     0.394000000000     0.862500000000     0          
C11      C      0.880200000000     0.414800000000     0.910600000000     0          
C12      C      0.847800000000     0.435900000000     0.933100000000     0          
C13      C      0.914900000000     0.409500000000     0.929100000000     0          
H5       H      0.917800000000     0.416400000000     0.956300000000     0          
C14      C      0.949500000000     0.392600000000     0.906100000000     0          
H6       H      0.974800000000     0.391700000000     0.918600000000     0          
H9?      H      0.942300000000     0.334200000000     0.801400000000     0          
O1       O      0.782370000000     0.500000000000     0.046200000000     0          
O2       O      0.791900000000     0.441200000000     0.000000000000     0          
C1       C      0.000000000000     0.258100000000     0.633600000000     0          
C2       C      0.000000000000     0.272800000000     0.675100000000     0          
C5       C      0.000000000000     0.307100000000     0.753100000000     0          
C6       C      0.000000000000     0.326600000000     0.791600000000     0          
O3       O      0.541230000000     0.040150000000     0.639560000000     0          
O4       O      0.577010000000     0.075510000000     0.690600000000     0          
O5       O      0.882850000000     0.246720000000     0.534600000000     0          
N1       N      0.690700000000     0.161100000000     0.533300000000     0          
C3       C      0.804100000000     0.218500000000     0.536500000000     0          
H1       H      0.816600000000     0.224700000000     0.561000000000     0          
C4       C      0.766200000000     0.201400000000     0.536800000000     0          
H2       H      0.753400000000     0.195500000000     0.561300000000     0          
C7       C      0.656600000000     0.138800000000     0.521700000000     0          
C8       C      0.632100000000     0.121600000000     0.553700000000     0          
C9       C      0.647500000000     0.120400000000     0.594800000000     0          
H3       H      0.673200000000     0.131300000000     0.599100000000     0          
C10      C      0.627200000000     0.104300000000     0.628900000000     0          
H4       H      0.637500000000     0.106000000000     0.655100000000     0          
C11      C      0.589400000000     0.085200000000     0.619800000000     0          
C12      C      0.566900000000     0.064100000000     0.652200000000     0          
C13      C      0.570900000000     0.090500000000     0.585100000000     0          
H5       H      0.543700000000     0.083600000000     0.582200000000     0          
C14      C      0.593900000000     0.107400000000     0.550500000000     0          
H6       H      0.581400000000     0.108300000000     0.525200000000     0          
H9?      H      0.698600000000     0.165800000000     0.557700000000     0          
Zr1      Zr     0.447350000000     0.947350000000     0.750000000000     0          
Zr2      Zr     0.500000000000     0.000000000000     0.674290000000     0          
O1       O      0.453800000000     0.000000000000     0.717630000000     0          
O2       O      0.500000000000     0.058800000000     0.708100000000     0          
C1       C      0.866400000000     0.241900000000     0.500000000000     0          
C2       C      0.824900000000     0.227200000000     0.500000000000     0          
C5       C      0.746900000000     0.192900000000     0.500000000000     0          
C6       C      0.708400000000     0.173400000000     0.500000000000     0          
O3       O      0.541230000000     0.959850000000     0.360440000000     0          
O4       O      0.577010000000     0.924490000000     0.309400000000     0          
O5       O      0.882850000000     0.753280000000     0.465400000000     0          
N1       N      0.690700000000     0.838900000000     0.466700000000     0          
C3       C      0.804100000000     0.781500000000     0.463500000000     0          
H1       H      0.816600000000     0.775300000000     0.439000000000     0          
C4       C      0.766200000000     0.798600000000     0.463200000000     0          
H2       H      0.753400000000     0.804500000000     0.438700000000     0          
C7       C      0.656600000000     0.861200000000     0.478300000000     0          
C8       C      0.632100000000     0.878400000000     0.446300000000     0          
C9       C      0.647500000000     0.879600000000     0.405200000000     0          
H3       H      0.673200000000     0.868700000000     0.400900000000     0          
C10      C      0.627200000000     0.895700000000     0.371100000000     0          
H4       H      0.637500000000     0.894000000000     0.344900000000     0          
C11      C      0.589400000000     0.914800000000     0.380200000000     0          
C12      C      0.566900000000     0.935900000000     0.347800000000     0          
C13      C      0.570900000000     0.909500000000     0.414900000000     0          
H5       H      0.543700000000     0.916400000000     0.417800000000     0          
C14      C      0.593900000000     0.892600000000     0.449500000000     0          
H6       H      0.581400000000     0.891700000000     0.474800000000     0          
H9?      H      0.698600000000     0.834200000000     0.442300000000     0          
Zr1      Zr     0.447350000000     0.052650000000     0.250000000000     0          
Zr2      Zr     0.500000000000     0.000000000000     0.325710000000     0          
O1       O      0.453800000000     0.000000000000     0.282370000000     0          
O2       O      0.500000000000     0.941200000000     0.291900000000     0          
C1       C      0.866400000000     0.758100000000     0.500000000000     0          
C2       C      0.824900000000     0.772800000000     0.500000000000     0          
C5       C      0.746900000000     0.807100000000     0.500000000000     0          
C6       C      0.708400000000     0.826600000000     0.500000000000     0          
O3       O      0.540150000000     0.041230000000     0.860440000000     0          
O4       O      0.575510000000     0.077010000000     0.809400000000     0          
O5       O      0.746720000000     0.382850000000     0.965400000000     0          
N1       N      0.661100000000     0.190700000000     0.966700000000     0          
C3       C      0.718500000000     0.304100000000     0.963500000000     0          
H1       H      0.724700000000     0.316600000000     0.939000000000     0          
C4       C      0.701400000000     0.266200000000     0.963200000000     0          
H2       H      0.695500000000     0.253400000000     0.938700000000     0          
C7       C      0.638800000000     0.156600000000     0.978300000000     0          
C8       C      0.621600000000     0.132100000000     0.946300000000     0          
C9       C      0.620400000000     0.147500000000     0.905200000000     0          
H3       H      0.631300000000     0.173200000000     0.900900000000     0          
C10      C      0.604300000000     0.127200000000     0.871100000000     0          
H4       H      0.606000000000     0.137500000000     0.844900000000     0          
C11      C      0.585200000000     0.089400000000     0.880200000000     0          
C12      C      0.564100000000     0.066900000000     0.847800000000     0          
C13      C      0.590500000000     0.070900000000     0.914900000000     0          
H5       H      0.583600000000     0.043700000000     0.917800000000     0          
C14      C      0.607400000000     0.093900000000     0.949500000000     0          
H6       H      0.608300000000     0.081400000000     0.974800000000     0          
H9?      H      0.665800000000     0.198600000000     0.942300000000     0          
Zr2      Zr     0.500000000000     0.000000000000     0.825710000000     0          
O1       O      0.500000000000     0.953800000000     0.782370000000     0          
O2       O      0.558800000000     0.000000000000     0.791900000000     0          
C1       C      0.741900000000     0.366400000000     0.000000000000     0          
C2       C      0.727200000000     0.324900000000     0.000000000000     0          
C5       C      0.692900000000     0.246900000000     0.000000000000     0          
C6       C      0.673400000000     0.208400000000     0.000000000000     0          
O3       O      0.458770000000     0.040150000000     0.360440000000     0          
O4       O      0.422990000000     0.075510000000     0.309400000000     0          
O5       O      0.117150000000     0.246720000000     0.465400000000     0          
N1       N      0.309300000000     0.161100000000     0.466700000000     0          
C3       C      0.195900000000     0.218500000000     0.463500000000     0          
H1       H      0.183400000000     0.224700000000     0.439000000000     0          
C4       C      0.233800000000     0.201400000000     0.463200000000     0          
H2       H      0.246600000000     0.195500000000     0.438700000000     0          
C7       C      0.343400000000     0.138800000000     0.478300000000     0          
C8       C      0.367900000000     0.121600000000     0.446300000000     0          
C9       C      0.352500000000     0.120400000000     0.405200000000     0          
H3       H      0.326800000000     0.131300000000     0.400900000000     0          
C10      C      0.372800000000     0.104300000000     0.371100000000     0          
H4       H      0.362500000000     0.106000000000     0.344900000000     0          
C11      C      0.410600000000     0.085200000000     0.380200000000     0          
C12      C      0.433100000000     0.064100000000     0.347800000000     0          
C13      C      0.429100000000     0.090500000000     0.414900000000     0          
H5       H      0.456300000000     0.083600000000     0.417800000000     0          
C14      C      0.406100000000     0.107400000000     0.449500000000     0          
H6       H      0.418600000000     0.108300000000     0.474800000000     0          
H9?      H      0.301400000000     0.165800000000     0.442300000000     0          
Zr1      Zr     0.552650000000     0.947350000000     0.250000000000     0          
O1       O      0.546200000000     0.000000000000     0.282370000000     0          
O2       O      0.500000000000     0.058800000000     0.291900000000     0          
C1       C      0.133600000000     0.241900000000     0.500000000000     0          
C2       C      0.175100000000     0.227200000000     0.500000000000     0          
C5       C      0.253100000000     0.192900000000     0.500000000000     0          
C6       C      0.291600000000     0.173400000000     0.500000000000     0          
O3       O      0.459850000000     0.958770000000     0.860440000000     0          
O4       O      0.424490000000     0.922990000000     0.809400000000     0          
O5       O      0.253280000000     0.617150000000     0.965400000000     0          
N1       N      0.338900000000     0.809300000000     0.966700000000     0          
C3       C      0.281500000000     0.695900000000     0.963500000000     0          
H1       H      0.275300000000     0.683400000000     0.939000000000     0          
C4       C      0.298600000000     0.733800000000     0.963200000000     0          
H2       H      0.304500000000     0.746600000000     0.938700000000     0          
C7       C      0.361200000000     0.843400000000     0.978300000000     0          
C8       C      0.378400000000     0.867900000000     0.946300000000     0          
C9       C      0.379600000000     0.852500000000     0.905200000000     0          
H3       H      0.368700000000     0.826800000000     0.900900000000     0          
C10      C      0.395700000000     0.872800000000     0.871100000000     0          
H4       H      0.394000000000     0.862500000000     0.844900000000     0          
C11      C      0.414800000000     0.910600000000     0.880200000000     0          
C12      C      0.435900000000     0.933100000000     0.847800000000     0          
C13      C      0.409500000000     0.929100000000     0.914900000000     0          
H5       H      0.416400000000     0.956300000000     0.917800000000     0          
C14      C      0.392600000000     0.906100000000     0.949500000000     0          
H6       H      0.391700000000     0.918600000000     0.974800000000     0          
H9?      H      0.334200000000     0.801400000000     0.942300000000     0          
Zr1      Zr     0.552650000000     0.052650000000     0.750000000000     0          
O1       O      0.500000000000     0.046200000000     0.782370000000     0          
O2       O      0.441200000000     0.000000000000     0.791900000000     0          
C1       C      0.258100000000     0.633600000000     0.000000000000     0          
C2       C      0.272800000000     0.675100000000     0.000000000000     0          
C5       C      0.307100000000     0.753100000000     0.000000000000     0          
C6       C      0.326600000000     0.791600000000     0.000000000000     0          
O3       O      0.458770000000     0.959850000000     0.639560000000     0          
O4       O      0.422990000000     0.924490000000     0.690600000000     0          
O5       O      0.117150000000     0.753280000000     0.534600000000     0          
N1       N      0.309300000000     0.838900000000     0.533300000000     0          
C3       C      0.195900000000     0.781500000000     0.536500000000     0          
H1       H      0.183400000000     0.775300000000     0.561000000000     0          
C4       C      0.233800000000     0.798600000000     0.536800000000     0          
H2       H      0.246600000000     0.804500000000     0.561300000000     0          
C7       C      0.343400000000     0.861200000000     0.521700000000     0          
C8       C      0.367900000000     0.878400000000     0.553700000000     0          
C9       C      0.352500000000     0.879600000000     0.594800000000     0          
H3       H      0.326800000000     0.868700000000     0.599100000000     0          
C10      C      0.372800000000     0.895700000000     0.628900000000     0          
H4       H      0.362500000000     0.894000000000     0.655100000000     0          
C11      C      0.410600000000     0.914800000000     0.619800000000     0          
C12      C      0.433100000000     0.935900000000     0.652200000000     0          
C13      C      0.429100000000     0.909500000000     0.585100000000     0          
H5       H      0.456300000000     0.916400000000     0.582200000000     0          
C14      C      0.406100000000     0.892600000000     0.550500000000     0          
H6       H      0.418600000000     0.891700000000     0.525200000000     0          
H9?      H      0.301400000000     0.834200000000     0.557700000000     0          
O1       O      0.546200000000     0.000000000000     0.717630000000     0          
O2       O      0.500000000000     0.941200000000     0.708100000000     0          
C1       C      0.133600000000     0.758100000000     0.500000000000     0          
C2       C      0.175100000000     0.772800000000     0.500000000000     0          
C5       C      0.253100000000     0.807100000000     0.500000000000     0          
C6       C      0.291600000000     0.826600000000     0.500000000000     0          
O3       O      0.540150000000     0.958770000000     0.139560000000     0          
O4       O      0.575510000000     0.922990000000     0.190600000000     0          
O5       O      0.746720000000     0.617150000000     0.034600000000     0          
N1       N      0.661100000000     0.809300000000     0.033300000000     0          
C3       C      0.718500000000     0.695900000000     0.036500000000     0          
H1       H      0.724700000000     0.683400000000     0.061000000000     0          
C4       C      0.701400000000     0.733800000000     0.036800000000     0          
H2       H      0.695500000000     0.746600000000     0.061300000000     0          
C7       C      0.638800000000     0.843400000000     0.021700000000     0          
C8       C      0.621600000000     0.867900000000     0.053700000000     0          
C9       C      0.620400000000     0.852500000000     0.094800000000     0          
H3       H      0.631300000000     0.826800000000     0.099100000000     0          
C10      C      0.604300000000     0.872800000000     0.128900000000     0          
H4       H      0.606000000000     0.862500000000     0.155100000000     0          
C11      C      0.585200000000     0.910600000000     0.119800000000     0          
C12      C      0.564100000000     0.933100000000     0.152200000000     0          
C13      C      0.590500000000     0.929100000000     0.085100000000     0          
H5       H      0.583600000000     0.956300000000     0.082200000000     0          
C14      C      0.607400000000     0.906100000000     0.050500000000     0          
H6       H      0.608300000000     0.918600000000     0.025200000000     0          
H9?      H      0.665800000000     0.801400000000     0.057700000000     0          
Zr2      Zr     0.500000000000     0.000000000000     0.174290000000     0          
O1       O      0.500000000000     0.046200000000     0.217630000000     0          
O2       O      0.558800000000     0.000000000000     0.208100000000     0          
C1       C      0.741900000000     0.633600000000     0.000000000000     0          
C2       C      0.727200000000     0.675100000000     0.000000000000     0          
C5       C      0.692900000000     0.753100000000     0.000000000000     0          
C6       C      0.673400000000     0.791600000000     0.000000000000     0          
O3       O      0.459850000000     0.041230000000     0.139560000000     0          
O4       O      0.424490000000     0.077010000000     0.190600000000     0          
O5       O      0.253280000000     0.382850000000     0.034600000000     0          
N1       N      0.338900000000     0.190700000000     0.033300000000     0          
C3       C      0.281500000000     0.304100000000     0.036500000000     0          
H1       H      0.275300000000     0.316600000000     0.061000000000     0          
C4       C      0.298600000000     0.266200000000     0.036800000000     0          
H2       H      0.304500000000     0.253400000000     0.061300000000     0          
C7       C      0.361200000000     0.156600000000     0.021700000000     0          
C8       C      0.378400000000     0.132100000000     0.053700000000     0          
C9       C      0.379600000000     0.147500000000     0.094800000000     0          
H3       H      0.368700000000     0.173200000000     0.099100000000     0          
C10      C      0.395700000000     0.127200000000     0.128900000000     0          
H4       H      0.394000000000     0.137500000000     0.155100000000     0          
C11      C      0.414800000000     0.089400000000     0.119800000000     0          
C12      C      0.435900000000     0.066900000000     0.152200000000     0          
C13      C      0.409500000000     0.070900000000     0.085100000000     0          
H5       H      0.416400000000     0.043700000000     0.082200000000     0          
C14      C      0.392600000000     0.093900000000     0.050500000000     0          
H6       H      0.391700000000     0.081400000000     0.025200000000     0          
H9?      H      0.334200000000     0.198600000000     0.057700000000     0          
O1       O      0.500000000000     0.953800000000     0.217630000000     0          
O2       O      0.441200000000     0.000000000000     0.208100000000     0          
C1       C      0.258100000000     0.366400000000     0.000000000000     0          
C2       C      0.272800000000     0.324900000000     0.000000000000     0          
C5       C      0.307100000000     0.246900000000     0.000000000000     0          
C6       C      0.326600000000     0.208400000000     0.000000000000     0          
O3       O      0.360440000000     0.458770000000     0.959850000000     0          
O4       O      0.309400000000     0.422990000000     0.924490000000     0          
O5       O      0.465400000000     0.117150000000     0.753280000000     0          
N1       N      0.466700000000     0.309300000000     0.838900000000     0          
C3       C      0.463500000000     0.195900000000     0.781500000000     0          
H1       H      0.439000000000     0.183400000000     0.775300000000     0          
C4       C      0.463200000000     0.233800000000     0.798600000000     0          
H2       H      0.438700000000     0.246600000000     0.804500000000     0          
C7       C      0.478300000000     0.343400000000     0.861200000000     0          
C8       C      0.446300000000     0.367900000000     0.878400000000     0          
C9       C      0.405200000000     0.352500000000     0.879600000000     0          
H3       H      0.400900000000     0.326800000000     0.868700000000     0          
C10      C      0.371100000000     0.372800000000     0.895700000000     0          
H4       H      0.344900000000     0.362500000000     0.894000000000     0          
C11      C      0.380200000000     0.410600000000     0.914800000000     0          
C12      C      0.347800000000     0.433100000000     0.935900000000     0          
C13      C      0.414900000000     0.429100000000     0.909500000000     0          
H5       H      0.417800000000     0.456300000000     0.916400000000     0          
C14      C      0.449500000000     0.406100000000     0.892600000000     0          
H6       H      0.474800000000     0.418600000000     0.891700000000     0          
H9?      H      0.442300000000     0.301400000000     0.834200000000     0          
Zr1      Zr     0.250000000000     0.552650000000     0.052650000000     0          
O3       O      0.041230000000     0.860440000000     0.459850000000     0          
O4       O      0.077010000000     0.809400000000     0.424490000000     0          
O5       O      0.382850000000     0.965400000000     0.253280000000     0          
N1       N      0.190700000000     0.966700000000     0.338900000000     0          
C3       C      0.304100000000     0.963500000000     0.281500000000     0          
H1       H      0.316600000000     0.939000000000     0.275300000000     0          
C4       C      0.266200000000     0.963200000000     0.298600000000     0          
H2       H      0.253400000000     0.938700000000     0.304500000000     0          
C7       C      0.156600000000     0.978300000000     0.361200000000     0          
C8       C      0.132100000000     0.946300000000     0.378400000000     0          
C9       C      0.147500000000     0.905200000000     0.379600000000     0          
H3       H      0.173200000000     0.900900000000     0.368700000000     0          
C10      C      0.127200000000     0.871100000000     0.395700000000     0          
H4       H      0.137500000000     0.844900000000     0.394000000000     0          
C11      C      0.089400000000     0.880200000000     0.414800000000     0          
C12      C      0.066900000000     0.847800000000     0.435900000000     0          
C13      C      0.070900000000     0.914900000000     0.409500000000     0          
H5       H      0.043700000000     0.917800000000     0.416400000000     0          
C14      C      0.093900000000     0.949500000000     0.392600000000     0          
H6       H      0.081400000000     0.974800000000     0.391700000000     0          
H9?      H      0.198600000000     0.942300000000     0.334200000000     0          
Zr1      Zr     0.947350000000     0.750000000000     0.552650000000     0          
O3       O      0.639560000000     0.541230000000     0.959850000000     0          
O4       O      0.690600000000     0.577010000000     0.924490000000     0          
O5       O      0.534600000000     0.882850000000     0.753280000000     0          
N1       N      0.533300000000     0.690700000000     0.838900000000     0          
C3       C      0.536500000000     0.804100000000     0.781500000000     0          
H1       H      0.561000000000     0.816600000000     0.775300000000     0          
C4       C      0.536800000000     0.766200000000     0.798600000000     0          
H2       H      0.561300000000     0.753400000000     0.804500000000     0          
C7       C      0.521700000000     0.656600000000     0.861200000000     0          
C8       C      0.553700000000     0.632100000000     0.878400000000     0          
C9       C      0.594800000000     0.647500000000     0.879600000000     0          
H3       H      0.599100000000     0.673200000000     0.868700000000     0          
C10      C      0.628900000000     0.627200000000     0.895700000000     0          
H4       H      0.655100000000     0.637500000000     0.894000000000     0          
C11      C      0.619800000000     0.589400000000     0.914800000000     0          
C12      C      0.652200000000     0.566900000000     0.935900000000     0          
C13      C      0.585100000000     0.570900000000     0.909500000000     0          
H5       H      0.582200000000     0.543700000000     0.916400000000     0          
C14      C      0.550500000000     0.593900000000     0.892600000000     0          
H6       H      0.525200000000     0.581400000000     0.891700000000     0          
H9?      H      0.557700000000     0.698600000000     0.834200000000     0          
Zr1      Zr     0.750000000000     0.447350000000     0.052650000000     0          
O3       O      0.958770000000     0.139560000000     0.459850000000     0          
O4       O      0.922990000000     0.190600000000     0.424490000000     0          
O5       O      0.617150000000     0.034600000000     0.253280000000     0          
N1       N      0.809300000000     0.033300000000     0.338900000000     0          
C3       C      0.695900000000     0.036500000000     0.281500000000     0          
H1       H      0.683400000000     0.061000000000     0.275300000000     0          
C4       C      0.733800000000     0.036800000000     0.298600000000     0          
H2       H      0.746600000000     0.061300000000     0.304500000000     0          
C7       C      0.843400000000     0.021700000000     0.361200000000     0          
C8       C      0.867900000000     0.053700000000     0.378400000000     0          
C9       C      0.852500000000     0.094800000000     0.379600000000     0          
H3       H      0.826800000000     0.099100000000     0.368700000000     0          
C10      C      0.872800000000     0.128900000000     0.395700000000     0          
H4       H      0.862500000000     0.155100000000     0.394000000000     0          
C11      C      0.910600000000     0.119800000000     0.414800000000     0          
C12      C      0.933100000000     0.152200000000     0.435900000000     0          
C13      C      0.929100000000     0.085100000000     0.409500000000     0          
H5       H      0.956300000000     0.082200000000     0.416400000000     0          
C14      C      0.906100000000     0.050500000000     0.392600000000     0          
H6       H      0.918600000000     0.025200000000     0.391700000000     0          
H9?      H      0.801400000000     0.057700000000     0.334200000000     0          
Zr1      Zr     0.052650000000     0.250000000000     0.552650000000     0          
O3       O      0.360440000000     0.541230000000     0.040150000000     0          
O4       O      0.309400000000     0.577010000000     0.075510000000     0          
O5       O      0.465400000000     0.882850000000     0.246720000000     0          
N1       N      0.466700000000     0.690700000000     0.161100000000     0          
C3       C      0.463500000000     0.804100000000     0.218500000000     0          
H1       H      0.439000000000     0.816600000000     0.224700000000     0          
C4       C      0.463200000000     0.766200000000     0.201400000000     0          
H2       H      0.438700000000     0.753400000000     0.195500000000     0          
C7       C      0.478300000000     0.656600000000     0.138800000000     0          
C8       C      0.446300000000     0.632100000000     0.121600000000     0          
C9       C      0.405200000000     0.647500000000     0.120400000000     0          
H3       H      0.400900000000     0.673200000000     0.131300000000     0          
C10      C      0.371100000000     0.627200000000     0.104300000000     0          
H4       H      0.344900000000     0.637500000000     0.106000000000     0          
C11      C      0.380200000000     0.589400000000     0.085200000000     0          
C12      C      0.347800000000     0.566900000000     0.064100000000     0          
C13      C      0.414900000000     0.570900000000     0.090500000000     0          
H5       H      0.417800000000     0.543700000000     0.083600000000     0          
C14      C      0.449500000000     0.593900000000     0.107400000000     0          
H6       H      0.474800000000     0.581400000000     0.108300000000     0          
H9?      H      0.442300000000     0.698600000000     0.165800000000     0          
Zr1      Zr     0.250000000000     0.447350000000     0.947350000000     0          
O3       O      0.958770000000     0.860440000000     0.540150000000     0          
O4       O      0.922990000000     0.809400000000     0.575510000000     0          
O5       O      0.617150000000     0.965400000000     0.746720000000     0          
N1       N      0.809300000000     0.966700000000     0.661100000000     0          
C3       C      0.695900000000     0.963500000000     0.718500000000     0          
H1       H      0.683400000000     0.939000000000     0.724700000000     0          
C4       C      0.733800000000     0.963200000000     0.701400000000     0          
H2       H      0.746600000000     0.938700000000     0.695500000000     0          
C7       C      0.843400000000     0.978300000000     0.638800000000     0          
C8       C      0.867900000000     0.946300000000     0.621600000000     0          
C9       C      0.852500000000     0.905200000000     0.620400000000     0          
H3       H      0.826800000000     0.900900000000     0.631300000000     0          
C10      C      0.872800000000     0.871100000000     0.604300000000     0          
H4       H      0.862500000000     0.844900000000     0.606000000000     0          
C11      C      0.910600000000     0.880200000000     0.585200000000     0          
C12      C      0.933100000000     0.847800000000     0.564100000000     0          
C13      C      0.929100000000     0.914900000000     0.590500000000     0          
H5       H      0.956300000000     0.917800000000     0.583600000000     0          
C14      C      0.906100000000     0.949500000000     0.607400000000     0          
H6       H      0.918600000000     0.974800000000     0.608300000000     0          
H9?      H      0.801400000000     0.942300000000     0.665800000000     0          
Zr1      Zr     0.052650000000     0.750000000000     0.447350000000     0          
O3       O      0.639560000000     0.458770000000     0.040150000000     0          
O4       O      0.690600000000     0.422990000000     0.075510000000     0          
O5       O      0.534600000000     0.117150000000     0.246720000000     0          
N1       N      0.533300000000     0.309300000000     0.161100000000     0          
C3       C      0.536500000000     0.195900000000     0.218500000000     0          
H1       H      0.561000000000     0.183400000000     0.224700000000     0          
C4       C      0.536800000000     0.233800000000     0.201400000000     0          
H2       H      0.561300000000     0.246600000000     0.195500000000     0          
C7       C      0.521700000000     0.343400000000     0.138800000000     0          
C8       C      0.553700000000     0.367900000000     0.121600000000     0          
C9       C      0.594800000000     0.352500000000     0.120400000000     0          
H3       H      0.599100000000     0.326800000000     0.131300000000     0          
C10      C      0.628900000000     0.372800000000     0.104300000000     0          
H4       H      0.655100000000     0.362500000000     0.106000000000     0          
C11      C      0.619800000000     0.410600000000     0.085200000000     0          
C12      C      0.652200000000     0.433100000000     0.064100000000     0          
C13      C      0.585100000000     0.429100000000     0.090500000000     0          
H5       H      0.582200000000     0.456300000000     0.083600000000     0          
C14      C      0.550500000000     0.406100000000     0.107400000000     0          
H6       H      0.525200000000     0.418600000000     0.108300000000     0          
H9?      H      0.557700000000     0.301400000000     0.165800000000     0          
Zr1      Zr     0.750000000000     0.552650000000     0.947350000000     0          
O3       O      0.041230000000     0.139560000000     0.540150000000     0          
O4       O      0.077010000000     0.190600000000     0.575510000000     0          
O5       O      0.382850000000     0.034600000000     0.746720000000     0          
N1       N      0.190700000000     0.033300000000     0.661100000000     0          
C3       C      0.304100000000     0.036500000000     0.718500000000     0          
H1       H      0.316600000000     0.061000000000     0.724700000000     0          
C4       C      0.266200000000     0.036800000000     0.701400000000     0          
H2       H      0.253400000000     0.061300000000     0.695500000000     0          
C7       C      0.156600000000     0.021700000000     0.638800000000     0          
C8       C      0.132100000000     0.053700000000     0.621600000000     0          
C9       C      0.147500000000     0.094800000000     0.620400000000     0          
H3       H      0.173200000000     0.099100000000     0.631300000000     0          
C10      C      0.127200000000     0.128900000000     0.604300000000     0          
H4       H      0.137500000000     0.155100000000     0.606000000000     0          
C11      C      0.089400000000     0.119800000000     0.585200000000     0          
C12      C      0.066900000000     0.152200000000     0.564100000000     0          
C13      C      0.070900000000     0.085100000000     0.590500000000     0          
H5       H      0.043700000000     0.082200000000     0.583600000000     0          
C14      C      0.093900000000     0.050500000000     0.607400000000     0          
H6       H      0.081400000000     0.025200000000     0.608300000000     0          
H9?      H      0.198600000000     0.057700000000     0.665800000000     0          
Zr1      Zr     0.947350000000     0.250000000000     0.447350000000     0          
O3       O      0.959850000000     0.360440000000     0.458770000000     0          
O4       O      0.924490000000     0.309400000000     0.422990000000     0          
O5       O      0.753280000000     0.465400000000     0.117150000000     0          
N1       N      0.838900000000     0.466700000000     0.309300000000     0          
C3       C      0.781500000000     0.463500000000     0.195900000000     0          
H1       H      0.775300000000     0.439000000000     0.183400000000     0          
C4       C      0.798600000000     0.463200000000     0.233800000000     0          
H2       H      0.804500000000     0.438700000000     0.246600000000     0          
C7       C      0.861200000000     0.478300000000     0.343400000000     0          
C8       C      0.878400000000     0.446300000000     0.367900000000     0          
C9       C      0.879600000000     0.405200000000     0.352500000000     0          
H3       H      0.868700000000     0.400900000000     0.326800000000     0          
C10      C      0.895700000000     0.371100000000     0.372800000000     0          
H4       H      0.894000000000     0.344900000000     0.362500000000     0          
C11      C      0.914800000000     0.380200000000     0.410600000000     0          
C12      C      0.935900000000     0.347800000000     0.433100000000     0          
C13      C      0.909500000000     0.414900000000     0.429100000000     0          
H5       H      0.916400000000     0.417800000000     0.456300000000     0          
C14      C      0.892600000000     0.449500000000     0.406100000000     0          
H6       H      0.891700000000     0.474800000000     0.418600000000     0          
H9?      H      0.834200000000     0.442300000000     0.301400000000     0          
O3       O      0.139560000000     0.459850000000     0.958770000000     0          
O4       O      0.190600000000     0.424490000000     0.922990000000     0          
O5       O      0.034600000000     0.253280000000     0.617150000000     0          
N1       N      0.033300000000     0.338900000000     0.809300000000     0          
C3       C      0.036500000000     0.281500000000     0.695900000000     0          
H1       H      0.061000000000     0.275300000000     0.683400000000     0          
C4       C      0.036800000000     0.298600000000     0.733800000000     0          
H2       H      0.061300000000     0.304500000000     0.746600000000     0          
C7       C      0.021700000000     0.361200000000     0.843400000000     0          
C8       C      0.053700000000     0.378400000000     0.867900000000     0          
C9       C      0.094800000000     0.379600000000     0.852500000000     0          
H3       H      0.099100000000     0.368700000000     0.826800000000     0          
C10      C      0.128900000000     0.395700000000     0.872800000000     0          
H4       H      0.155100000000     0.394000000000     0.862500000000     0          
C11      C      0.119800000000     0.414800000000     0.910600000000     0          
C12      C      0.152200000000     0.435900000000     0.933100000000     0          
C13      C      0.085100000000     0.409500000000     0.929100000000     0          
H5       H      0.082200000000     0.416400000000     0.956300000000     0          
C14      C      0.050500000000     0.392600000000     0.906100000000     0          
H6       H      0.025200000000     0.391700000000     0.918600000000     0          
H9?      H      0.057700000000     0.334200000000     0.801400000000     0          
O3       O      0.040150000000     0.639560000000     0.458770000000     0          
O4       O      0.075510000000     0.690600000000     0.422990000000     0          
O5       O      0.246720000000     0.534600000000     0.117150000000     0          
N1       N      0.161100000000     0.533300000000     0.309300000000     0          
C3       C      0.218500000000     0.536500000000     0.195900000000     0          
H1       H      0.224700000000     0.561000000000     0.183400000000     0          
C4       C      0.201400000000     0.536800000000     0.233800000000     0          
H2       H      0.195500000000     0.561300000000     0.246600000000     0          
C7       C      0.138800000000     0.521700000000     0.343400000000     0          
C8       C      0.121600000000     0.553700000000     0.367900000000     0          
C9       C      0.120400000000     0.594800000000     0.352500000000     0          
H3       H      0.131300000000     0.599100000000     0.326800000000     0          
C10      C      0.104300000000     0.628900000000     0.372800000000     0          
H4       H      0.106000000000     0.655100000000     0.362500000000     0          
C11      C      0.085200000000     0.619800000000     0.410600000000     0          
C12      C      0.064100000000     0.652200000000     0.433100000000     0          
C13      C      0.090500000000     0.585100000000     0.429100000000     0          
H5       H      0.083600000000     0.582200000000     0.456300000000     0          
C14      C      0.107400000000     0.550500000000     0.406100000000     0          
H6       H      0.108300000000     0.525200000000     0.418600000000     0          
H9?      H      0.165800000000     0.557700000000     0.301400000000     0          
O3       O      0.860440000000     0.540150000000     0.958770000000     0          
O4       O      0.809400000000     0.575510000000     0.922990000000     0          
O5       O      0.965400000000     0.746720000000     0.617150000000     0          
N1       N      0.966700000000     0.661100000000     0.809300000000     0          
C3       C      0.963500000000     0.718500000000     0.695900000000     0          
H1       H      0.939000000000     0.724700000000     0.683400000000     0          
C4       C      0.963200000000     0.701400000000     0.733800000000     0          
H2       H      0.938700000000     0.695500000000     0.746600000000     0          
C7       C      0.978300000000     0.638800000000     0.843400000000     0          
C8       C      0.946300000000     0.621600000000     0.867900000000     0          
C9       C      0.905200000000     0.620400000000     0.852500000000     0          
H3       H      0.900900000000     0.631300000000     0.826800000000     0          
C10      C      0.871100000000     0.604300000000     0.872800000000     0          
H4       H      0.844900000000     0.606000000000     0.862500000000     0          
C11      C      0.880200000000     0.585200000000     0.910600000000     0          
C12      C      0.847800000000     0.564100000000     0.933100000000     0          
C13      C      0.914900000000     0.590500000000     0.929100000000     0          
H5       H      0.917800000000     0.583600000000     0.956300000000     0          
C14      C      0.949500000000     0.607400000000     0.906100000000     0          
H6       H      0.974800000000     0.608300000000     0.918600000000     0          
H9?      H      0.942300000000     0.665800000000     0.801400000000     0          
O3       O      0.959850000000     0.639560000000     0.541230000000     0          
O4       O      0.924490000000     0.690600000000     0.577010000000     0          
O5       O      0.753280000000     0.534600000000     0.882850000000     0          
N1       N      0.838900000000     0.533300000000     0.690700000000     0          
C3       C      0.781500000000     0.536500000000     0.804100000000     0          
H1       H      0.775300000000     0.561000000000     0.816600000000     0          
C4       C      0.798600000000     0.536800000000     0.766200000000     0          
H2       H      0.804500000000     0.561300000000     0.753400000000     0          
C7       C      0.861200000000     0.521700000000     0.656600000000     0          
C8       C      0.878400000000     0.553700000000     0.632100000000     0          
C9       C      0.879600000000     0.594800000000     0.647500000000     0          
H3       H      0.868700000000     0.599100000000     0.673200000000     0          
C10      C      0.895700000000     0.628900000000     0.627200000000     0          
H4       H      0.894000000000     0.655100000000     0.637500000000     0          
C11      C      0.914800000000     0.619800000000     0.589400000000     0          
C12      C      0.935900000000     0.652200000000     0.566900000000     0          
C13      C      0.909500000000     0.585100000000     0.570900000000     0          
H5       H      0.916400000000     0.582200000000     0.543700000000     0          
C14      C      0.892600000000     0.550500000000     0.593900000000     0          
H6       H      0.891700000000     0.525200000000     0.581400000000     0          
H9?      H      0.834200000000     0.557700000000     0.698600000000     0          
O3       O      0.860440000000     0.459850000000     0.041230000000     0          
O4       O      0.809400000000     0.424490000000     0.077010000000     0          
O5       O      0.965400000000     0.253280000000     0.382850000000     0          
N1       N      0.966700000000     0.338900000000     0.190700000000     0          
C3       C      0.963500000000     0.281500000000     0.304100000000     0          
H1       H      0.939000000000     0.275300000000     0.316600000000     0          
C4       C      0.963200000000     0.298600000000     0.266200000000     0          
H2       H      0.938700000000     0.304500000000     0.253400000000     0          
C7       C      0.978300000000     0.361200000000     0.156600000000     0          
C8       C      0.946300000000     0.378400000000     0.132100000000     0          
C9       C      0.905200000000     0.379600000000     0.147500000000     0          
H3       H      0.900900000000     0.368700000000     0.173200000000     0          
C10      C      0.871100000000     0.395700000000     0.127200000000     0          
H4       H      0.844900000000     0.394000000000     0.137500000000     0          
C11      C      0.880200000000     0.414800000000     0.089400000000     0          
C12      C      0.847800000000     0.435900000000     0.066900000000     0          
C13      C      0.914900000000     0.409500000000     0.070900000000     0          
H5       H      0.917800000000     0.416400000000     0.043700000000     0          
C14      C      0.949500000000     0.392600000000     0.093900000000     0          
H6       H      0.974800000000     0.391700000000     0.081400000000     0          
H9?      H      0.942300000000     0.334200000000     0.198600000000     0          
O3       O      0.040150000000     0.360440000000     0.541230000000     0          
O4       O      0.075510000000     0.309400000000     0.577010000000     0          
O5       O      0.246720000000     0.465400000000     0.882850000000     0          
N1       N      0.161100000000     0.466700000000     0.690700000000     0          
C3       C      0.218500000000     0.463500000000     0.804100000000     0          
H1       H      0.224700000000     0.439000000000     0.816600000000     0          
C4       C      0.201400000000     0.463200000000     0.766200000000     0          
H2       H      0.195500000000     0.438700000000     0.753400000000     0          
C7       C      0.138800000000     0.478300000000     0.656600000000     0          
C8       C      0.121600000000     0.446300000000     0.632100000000     0          
C9       C      0.120400000000     0.405200000000     0.647500000000     0          
H3       H      0.131300000000     0.400900000000     0.673200000000     0          
C10      C      0.104300000000     0.371100000000     0.627200000000     0          
H4       H      0.106000000000     0.344900000000     0.637500000000     0          
C11      C      0.085200000000     0.380200000000     0.589400000000     0          
C12      C      0.064100000000     0.347800000000     0.566900000000     0          
C13      C      0.090500000000     0.414900000000     0.570900000000     0          
H5       H      0.083600000000     0.417800000000     0.543700000000     0          
C14      C      0.107400000000     0.449500000000     0.593900000000     0          
H6       H      0.108300000000     0.474800000000     0.581400000000     0          
H9?      H      0.165800000000     0.442300000000     0.698600000000     0          
O3       O      0.139560000000     0.540150000000     0.041230000000     0          
O4       O      0.190600000000     0.575510000000     0.077010000000     0          
O5       O      0.034600000000     0.746720000000     0.382850000000     0          
N1       N      0.033300000000     0.661100000000     0.190700000000     0          
C3       C      0.036500000000     0.718500000000     0.304100000000     0          
H1       H      0.061000000000     0.724700000000     0.316600000000     0          
C4       C      0.036800000000     0.701400000000     0.266200000000     0          
H2       H      0.061300000000     0.695500000000     0.253400000000     0          
C7       C      0.021700000000     0.638800000000     0.156600000000     0          
C8       C      0.053700000000     0.621600000000     0.132100000000     0          
C9       C      0.094800000000     0.620400000000     0.147500000000     0          
H3       H      0.099100000000     0.631300000000     0.173200000000     0          
C10      C      0.128900000000     0.604300000000     0.127200000000     0          
H4       H      0.155100000000     0.606000000000     0.137500000000     0          
C11      C      0.119800000000     0.585200000000     0.089400000000     0          
C12      C      0.152200000000     0.564100000000     0.066900000000     0          
C13      C      0.085100000000     0.590500000000     0.070900000000     0          
H5       H      0.082200000000     0.583600000000     0.043700000000     0          
C14      C      0.050500000000     0.607400000000     0.093900000000     0          
H6       H      0.025200000000     0.608300000000     0.081400000000     0          
H9?      H      0.057700000000     0.665800000000     0.198600000000     0          
O3       O      0.458770000000     0.959850000000     0.360440000000     0          
O4       O      0.422990000000     0.924490000000     0.309400000000     0          
O5       O      0.117150000000     0.753280000000     0.465400000000     0          
N1       N      0.309300000000     0.838900000000     0.466700000000     0          
C3       C      0.195900000000     0.781500000000     0.463500000000     0          
H1       H      0.183400000000     0.775300000000     0.439000000000     0          
C4       C      0.233800000000     0.798600000000     0.463200000000     0          
H2       H      0.246600000000     0.804500000000     0.438700000000     0          
C7       C      0.343400000000     0.861200000000     0.478300000000     0          
C8       C      0.367900000000     0.878400000000     0.446300000000     0          
C9       C      0.352500000000     0.879600000000     0.405200000000     0          
H3       H      0.326800000000     0.868700000000     0.400900000000     0          
C10      C      0.372800000000     0.895700000000     0.371100000000     0          
H4       H      0.362500000000     0.894000000000     0.344900000000     0          
C11      C      0.410600000000     0.914800000000     0.380200000000     0          
C12      C      0.433100000000     0.935900000000     0.347800000000     0          
C13      C      0.429100000000     0.909500000000     0.414900000000     0          
H5       H      0.456300000000     0.916400000000     0.417800000000     0          
C14      C      0.406100000000     0.892600000000     0.449500000000     0          
H6       H      0.418600000000     0.891700000000     0.474800000000     0          
H9?      H      0.301400000000     0.834200000000     0.442300000000     0          
Zr1      Zr     0.552650000000     0.052650000000     0.250000000000     0          
O3       O      0.458770000000     0.040150000000     0.639560000000     0          
O4       O      0.422990000000     0.075510000000     0.690600000000     0          
O5       O      0.117150000000     0.246720000000     0.534600000000     0          
N1       N      0.309300000000     0.161100000000     0.533300000000     0          
C3       C      0.195900000000     0.218500000000     0.536500000000     0          
H1       H      0.183400000000     0.224700000000     0.561000000000     0          
C4       C      0.233800000000     0.201400000000     0.536800000000     0          
H2       H      0.246600000000     0.195500000000     0.561300000000     0          
C7       C      0.343400000000     0.138800000000     0.521700000000     0          
C8       C      0.367900000000     0.121600000000     0.553700000000     0          
C9       C      0.352500000000     0.120400000000     0.594800000000     0          
H3       H      0.326800000000     0.131300000000     0.599100000000     0          
C10      C      0.372800000000     0.104300000000     0.628900000000     0          
H4       H      0.362500000000     0.106000000000     0.655100000000     0          
C11      C      0.410600000000     0.085200000000     0.619800000000     0          
C12      C      0.433100000000     0.064100000000     0.652200000000     0          
C13      C      0.429100000000     0.090500000000     0.585100000000     0          
H5       H      0.456300000000     0.083600000000     0.582200000000     0          
C14      C      0.406100000000     0.107400000000     0.550500000000     0          
H6       H      0.418600000000     0.108300000000     0.525200000000     0          
H9?      H      0.301400000000     0.165800000000     0.557700000000     0          
Zr1      Zr     0.552650000000     0.947350000000     0.750000000000     0          
O3       O      0.459850000000     0.958770000000     0.139560000000     0          
O4       O      0.424490000000     0.922990000000     0.190600000000     0          
O5       O      0.253280000000     0.617150000000     0.034600000000     0          
N1       N      0.338900000000     0.809300000000     0.033300000000     0          
C3       C      0.281500000000     0.695900000000     0.036500000000     0          
H1       H      0.275300000000     0.683400000000     0.061000000000     0          
C4       C      0.298600000000     0.733800000000     0.036800000000     0          
H2       H      0.304500000000     0.746600000000     0.061300000000     0          
C7       C      0.361200000000     0.843400000000     0.021700000000     0          
C8       C      0.378400000000     0.867900000000     0.053700000000     0          
C9       C      0.379600000000     0.852500000000     0.094800000000     0          
H3       H      0.368700000000     0.826800000000     0.099100000000     0          
C10      C      0.395700000000     0.872800000000     0.128900000000     0          
H4       H      0.394000000000     0.862500000000     0.155100000000     0          
C11      C      0.414800000000     0.910600000000     0.119800000000     0          
C12      C      0.435900000000     0.933100000000     0.152200000000     0          
C13      C      0.409500000000     0.929100000000     0.085100000000     0          
H5       H      0.416400000000     0.956300000000     0.082200000000     0          
C14      C      0.392600000000     0.906100000000     0.050500000000     0          
H6       H      0.391700000000     0.918600000000     0.025200000000     0          
H9?      H      0.334200000000     0.801400000000     0.057700000000     0          
O3       O      0.541230000000     0.959850000000     0.639560000000     0          
O4       O      0.577010000000     0.924490000000     0.690600000000     0          
O5       O      0.882850000000     0.753280000000     0.534600000000     0          
N1       N      0.690700000000     0.838900000000     0.533300000000     0          
C3       C      0.804100000000     0.781500000000     0.536500000000     0          
H1       H      0.816600000000     0.775300000000     0.561000000000     0          
C4       C      0.766200000000     0.798600000000     0.536800000000     0          
H2       H      0.753400000000     0.804500000000     0.561300000000     0          
C7       C      0.656600000000     0.861200000000     0.521700000000     0          
C8       C      0.632100000000     0.878400000000     0.553700000000     0          
C9       C      0.647500000000     0.879600000000     0.594800000000     0          
H3       H      0.673200000000     0.868700000000     0.599100000000     0          
C10      C      0.627200000000     0.895700000000     0.628900000000     0          
H4       H      0.637500000000     0.894000000000     0.655100000000     0          
C11      C      0.589400000000     0.914800000000     0.619800000000     0          
C12      C      0.566900000000     0.935900000000     0.652200000000     0          
C13      C      0.570900000000     0.909500000000     0.585100000000     0          
H5       H      0.543700000000     0.916400000000     0.582200000000     0          
C14      C      0.593900000000     0.892600000000     0.550500000000     0          
H6       H      0.581400000000     0.891700000000     0.525200000000     0          
H9?      H      0.698600000000     0.834200000000     0.557700000000     0          
Zr1      Zr     0.447350000000     0.052650000000     0.750000000000     0          
O3       O      0.540150000000     0.041230000000     0.139560000000     0          
O4       O      0.575510000000     0.077010000000     0.190600000000     0          
O5       O      0.746720000000     0.382850000000     0.034600000000     0          
N1       N      0.661100000000     0.190700000000     0.033300000000     0          
C3       C      0.718500000000     0.304100000000     0.036500000000     0          
H1       H      0.724700000000     0.316600000000     0.061000000000     0          
C4       C      0.701400000000     0.266200000000     0.036800000000     0          
H2       H      0.695500000000     0.253400000000     0.061300000000     0          
C7       C      0.638800000000     0.156600000000     0.021700000000     0          
C8       C      0.621600000000     0.132100000000     0.053700000000     0          
C9       C      0.620400000000     0.147500000000     0.094800000000     0          
H3       H      0.631300000000     0.173200000000     0.099100000000     0          
C10      C      0.604300000000     0.127200000000     0.128900000000     0          
H4       H      0.606000000000     0.137500000000     0.155100000000     0          
C11      C      0.585200000000     0.089400000000     0.119800000000     0          
C12      C      0.564100000000     0.066900000000     0.152200000000     0          
C13      C      0.590500000000     0.070900000000     0.085100000000     0          
H5       H      0.583600000000     0.043700000000     0.082200000000     0          
C14      C      0.607400000000     0.093900000000     0.050500000000     0          
H6       H      0.608300000000     0.081400000000     0.025200000000     0          
H9?      H      0.665800000000     0.198600000000     0.057700000000     0          
Zr1      Zr     0.447350000000     0.947350000000     0.250000000000     0          
O3       O      0.541230000000     0.040150000000     0.360440000000     0          
O4       O      0.577010000000     0.075510000000     0.309400000000     0          
O5       O      0.882850000000     0.246720000000     0.465400000000     0          
N1       N      0.690700000000     0.161100000000     0.466700000000     0          
C3       C      0.804100000000     0.218500000000     0.463500000000     0          
H1       H      0.816600000000     0.224700000000     0.439000000000     0          
C4       C      0.766200000000     0.201400000000     0.463200000000     0          
H2       H      0.753400000000     0.195500000000     0.438700000000     0          
C7       C      0.656600000000     0.138800000000     0.478300000000     0          
C8       C      0.632100000000     0.121600000000     0.446300000000     0          
C9       C      0.647500000000     0.120400000000     0.405200000000     0          
H3       H      0.673200000000     0.131300000000     0.400900000000     0          
C10      C      0.627200000000     0.104300000000     0.371100000000     0          
H4       H      0.637500000000     0.106000000000     0.344900000000     0          
C11      C      0.589400000000     0.085200000000     0.380200000000     0          
C12      C      0.566900000000     0.064100000000     0.347800000000     0          
C13      C      0.570900000000     0.090500000000     0.414900000000     0          
H5       H      0.543700000000     0.083600000000     0.417800000000     0          
C14      C      0.593900000000     0.107400000000     0.449500000000     0          
H6       H      0.581400000000     0.108300000000     0.474800000000     0          
H9?      H      0.698600000000     0.165800000000     0.442300000000     0          
O3       O      0.459850000000     0.041230000000     0.860440000000     0          
O4       O      0.424490000000     0.077010000000     0.809400000000     0          
O5       O      0.253280000000     0.382850000000     0.965400000000     0          
N1       N      0.338900000000     0.190700000000     0.966700000000     0          
C3       C      0.281500000000     0.304100000000     0.963500000000     0          
H1       H      0.275300000000     0.316600000000     0.939000000000     0          
C4       C      0.298600000000     0.266200000000     0.963200000000     0          
H2       H      0.304500000000     0.253400000000     0.938700000000     0          
C7       C      0.361200000000     0.156600000000     0.978300000000     0          
C8       C      0.378400000000     0.132100000000     0.946300000000     0          
C9       C      0.379600000000     0.147500000000     0.905200000000     0          
H3       H      0.368700000000     0.173200000000     0.900900000000     0          
C10      C      0.395700000000     0.127200000000     0.871100000000     0          
H4       H      0.394000000000     0.137500000000     0.844900000000     0          
C11      C      0.414800000000     0.089400000000     0.880200000000     0          
C12      C      0.435900000000     0.066900000000     0.847800000000     0          
C13      C      0.409500000000     0.070900000000     0.914900000000     0          
H5       H      0.416400000000     0.043700000000     0.917800000000     0          
C14      C      0.392600000000     0.093900000000     0.949500000000     0          
H6       H      0.391700000000     0.081400000000     0.974800000000     0          
H9?      H      0.334200000000     0.198600000000     0.942300000000     0          
O3       O      0.540150000000     0.958770000000     0.860440000000     0          
O4       O      0.575510000000     0.922990000000     0.809400000000     0          
O5       O      0.746720000000     0.617150000000     0.965400000000     0          
N1       N      0.661100000000     0.809300000000     0.966700000000     0          
C3       C      0.718500000000     0.695900000000     0.963500000000     0          
H1       H      0.724700000000     0.683400000000     0.939000000000     0          
C4       C      0.701400000000     0.733800000000     0.963200000000     0          
H2       H      0.695500000000     0.746600000000     0.938700000000     0          
C7       C      0.638800000000     0.843400000000     0.978300000000     0          
C8       C      0.621600000000     0.867900000000     0.946300000000     0          
C9       C      0.620400000000     0.852500000000     0.905200000000     0          
H3       H      0.631300000000     0.826800000000     0.900900000000     0          
C10      C      0.604300000000     0.872800000000     0.871100000000     0          
H4       H      0.606000000000     0.862500000000     0.844900000000     0          
C11      C      0.585200000000     0.910600000000     0.880200000000     0          
C12      C      0.564100000000     0.933100000000     0.847800000000     0          
C13      C      0.590500000000     0.929100000000     0.914900000000     0          
H5       H      0.583600000000     0.956300000000     0.917800000000     0          
C14      C      0.607400000000     0.906100000000     0.949500000000     0          
H6       H      0.608300000000     0.918600000000     0.974800000000     0          
H9?      H      0.665800000000     0.801400000000     0.942300000000     0          


