data_EJEBUS

_audit_creation_method RASPA-1.0
_audit_creation_date 2020-11-2
_audit_author_name 'Rocio Bueno-Perez'

_cell_length_a    32.499
_cell_length_b    32.499
_cell_length_c    32.499
_cell_angle_alpha 90
_cell_angle_beta  90
_cell_angle_gamma 90
_cell_volume      34325

_symmetry_cell_setting          triclinic
_symmetry_space_group_name_Hall 'P 1'
_symmetry_space_group_name_H-M  'P 1'
_symmetry_Int_Tables_number     1

_symmetry_equiv_pos_as_xyz 'x,y,z'

loop_
_atom_site_label
_atom_site_type_symbol
_atom_site_fract_x
_atom_site_fract_y
_atom_site_fract_z
_atom_site_charge
Zr1      Zr     0.000000000000     0.000000000000     0.075300000000     0          
Zr2      Zr     0.000000000000     0.500000000000     0.575300000000     0          
Zr3      Zr     0.500000000000     0.000000000000     0.575300000000     0          
Zr4      Zr     0.500000000000     0.500000000000     0.075300000000     0          
Zr5      Zr     0.000000000000     0.000000000000     0.924700000000     0          
Zr6      Zr     0.000000000000     0.500000000000     0.424700000000     0          
Zr7      Zr     0.500000000000     0.000000000000     0.424700000000     0          
Zr8      Zr     0.500000000000     0.500000000000     0.924700000000     0          
Zr9      Zr     0.075300000000     0.000000000000     0.000000000000     0          
Zr10     Zr     0.075300000000     0.500000000000     0.500000000000     0          
Zr11     Zr     0.575300000000     0.000000000000     0.500000000000     0          
Zr12     Zr     0.575300000000     0.500000000000     0.000000000000     0          
Zr13     Zr     0.924700000000     0.000000000000     0.000000000000     0          
Zr14     Zr     0.924700000000     0.500000000000     0.500000000000     0          
Zr15     Zr     0.424700000000     0.000000000000     0.500000000000     0          
Zr16     Zr     0.424700000000     0.500000000000     0.000000000000     0          
Zr17     Zr     0.000000000000     0.075300000000     0.000000000000     0          
Zr18     Zr     0.000000000000     0.575300000000     0.500000000000     0          
Zr19     Zr     0.500000000000     0.075300000000     0.500000000000     0          
Zr20     Zr     0.500000000000     0.575300000000     0.000000000000     0          
Zr21     Zr     0.000000000000     0.924700000000     0.000000000000     0          
Zr22     Zr     0.000000000000     0.424700000000     0.500000000000     0          
Zr23     Zr     0.500000000000     0.924700000000     0.500000000000     0          
Zr24     Zr     0.500000000000     0.424700000000     0.000000000000     0          
O25      O      0.037000000000     0.037000000000     0.037000000000     0          
O26      O      0.037000000000     0.537000000000     0.537000000000     0          
O27      O      0.537000000000     0.037000000000     0.537000000000     0          
O28      O      0.537000000000     0.537000000000     0.037000000000     0          
O29      O      0.963000000000     0.963000000000     0.037000000000     0          
O30      O      0.963000000000     0.463000000000     0.537000000000     0          
O31      O      0.463000000000     0.963000000000     0.537000000000     0          
O32      O      0.463000000000     0.463000000000     0.037000000000     0          
O33      O      0.963000000000     0.037000000000     0.963000000000     0          
O34      O      0.963000000000     0.537000000000     0.463000000000     0          
O35      O      0.463000000000     0.037000000000     0.463000000000     0          
O36      O      0.463000000000     0.537000000000     0.963000000000     0          
O37      O      0.037000000000     0.963000000000     0.963000000000     0          
O38      O      0.037000000000     0.463000000000     0.463000000000     0          
O39      O      0.537000000000     0.963000000000     0.463000000000     0          
O40      O      0.537000000000     0.463000000000     0.963000000000     0          
O41      O      0.037000000000     0.037000000000     0.963000000000     0          
O42      O      0.037000000000     0.537000000000     0.463000000000     0          
O43      O      0.537000000000     0.037000000000     0.463000000000     0          
O44      O      0.537000000000     0.537000000000     0.963000000000     0          
O45      O      0.963000000000     0.963000000000     0.963000000000     0          
O46      O      0.963000000000     0.463000000000     0.463000000000     0          
O47      O      0.463000000000     0.963000000000     0.463000000000     0          
O48      O      0.463000000000     0.463000000000     0.963000000000     0          
O49      O      0.037000000000     0.963000000000     0.037000000000     0          
O50      O      0.037000000000     0.463000000000     0.537000000000     0          
O51      O      0.537000000000     0.963000000000     0.537000000000     0          
O52      O      0.537000000000     0.463000000000     0.037000000000     0          
O53      O      0.963000000000     0.037000000000     0.037000000000     0          
O54      O      0.963000000000     0.537000000000     0.537000000000     0          
O55      O      0.463000000000     0.037000000000     0.537000000000     0          
O56      O      0.463000000000     0.537000000000     0.037000000000     0          
O57      O      0.000000000000     0.942300000000     0.109400000000     0          
O58      O      0.000000000000     0.442300000000     0.609400000000     0          
C59      C      0.000000000000     0.390000000000     0.663000000000     0          
C60      C      0.000000000000     0.347000000000     0.694000000000     0          
C61      C      0.000000000000     0.306000000000     0.683600000000     0          
N62      N      0.000000000000     0.275800000000     0.714000000000     0          
C63      C      0.000000000000     0.287000000000     0.755000000000     0          
C64      C      0.000000000000     0.329000000000     0.766000000000     0          
C65      C      0.000000000000     0.358600000000     0.735000000000     0          
O66      O      0.500000000000     0.942300000000     0.609400000000     0          
O67      O      0.500000000000     0.442300000000     0.109400000000     0          
O68      O      0.000000000000     0.057700000000     0.109400000000     0          
C69      C      0.000000000000     0.110000000000     0.163000000000     0          
C70      C      0.000000000000     0.153000000000     0.194000000000     0          
C71      C      0.000000000000     0.194000000000     0.183600000000     0          
N72      N      0.000000000000     0.224200000000     0.214000000000     0          
C73      C      0.000000000000     0.213000000000     0.255000000000     0          
C74      C      0.000000000000     0.171000000000     0.266000000000     0          
C75      C      0.000000000000     0.141400000000     0.235000000000     0          
O76      O      0.000000000000     0.557700000000     0.609400000000     0          
C77      C      0.000000000000     0.610000000000     0.663000000000     0          
C78      C      0.000000000000     0.653000000000     0.694000000000     0          
C79      C      0.000000000000     0.694000000000     0.683600000000     0          
N80      N      0.000000000000     0.724200000000     0.714000000000     0          
C81      C      0.000000000000     0.713000000000     0.755000000000     0          
C82      C      0.000000000000     0.671000000000     0.766000000000     0          
C83      C      0.000000000000     0.641400000000     0.735000000000     0          
O84      O      0.500000000000     0.057700000000     0.609400000000     0          
C85      C      0.500000000000     0.110000000000     0.663000000000     0          
C86      C      0.500000000000     0.153000000000     0.694000000000     0          
C87      C      0.500000000000     0.194000000000     0.683600000000     0          
N88      N      0.500000000000     0.224200000000     0.714000000000     0          
C89      C      0.500000000000     0.213000000000     0.755000000000     0          
C90      C      0.500000000000     0.171000000000     0.766000000000     0          
C91      C      0.500000000000     0.141400000000     0.735000000000     0          
O92      O      0.500000000000     0.557700000000     0.109400000000     0          
C93      C      0.500000000000     0.610000000000     0.163000000000     0          
C94      C      0.500000000000     0.653000000000     0.194000000000     0          
C95      C      0.500000000000     0.694000000000     0.183600000000     0          
N96      N      0.500000000000     0.724200000000     0.214000000000     0          
C97      C      0.500000000000     0.713000000000     0.255000000000     0          
C98      C      0.500000000000     0.671000000000     0.266000000000     0          
C99      C      0.500000000000     0.641400000000     0.235000000000     0          
O100     O      0.000000000000     0.942300000000     0.890600000000     0          
O101     O      0.000000000000     0.442300000000     0.390600000000     0          
O102     O      0.500000000000     0.942300000000     0.390600000000     0          
O103     O      0.500000000000     0.442300000000     0.890600000000     0          
O104     O      0.000000000000     0.057700000000     0.890600000000     0          
O105     O      0.000000000000     0.557700000000     0.390600000000     0          
C106     C      0.000000000000     0.610000000000     0.337000000000     0          
C107     C      0.000000000000     0.653000000000     0.306000000000     0          
C108     C      0.000000000000     0.694000000000     0.316400000000     0          
N109     N      0.000000000000     0.724200000000     0.286000000000     0          
C110     C      0.000000000000     0.713000000000     0.245000000000     0          
C111     C      0.000000000000     0.671000000000     0.234000000000     0          
C112     C      0.000000000000     0.641400000000     0.265000000000     0          
O113     O      0.500000000000     0.057700000000     0.390600000000     0          
C114     C      0.500000000000     0.110000000000     0.337000000000     0          
C115     C      0.500000000000     0.153000000000     0.306000000000     0          
C116     C      0.500000000000     0.194000000000     0.316400000000     0          
N117     N      0.500000000000     0.224200000000     0.286000000000     0          
C118     C      0.500000000000     0.213000000000     0.245000000000     0          
C119     C      0.500000000000     0.171000000000     0.234000000000     0          
C120     C      0.500000000000     0.141400000000     0.265000000000     0          
O121     O      0.500000000000     0.557700000000     0.890600000000     0          
C122     C      0.500000000000     0.610000000000     0.837000000000     0          
C123     C      0.500000000000     0.653000000000     0.806000000000     0          
C124     C      0.500000000000     0.694000000000     0.816400000000     0          
N125     N      0.500000000000     0.724200000000     0.786000000000     0          
C126     C      0.500000000000     0.713000000000     0.745000000000     0          
C127     C      0.500000000000     0.671000000000     0.734000000000     0          
C128     C      0.500000000000     0.641400000000     0.765000000000     0          
O129     O      0.109400000000     0.000000000000     0.942300000000     0          
O130     O      0.109400000000     0.500000000000     0.442300000000     0          
C131     C      0.163000000000     0.500000000000     0.390000000000     0          
C132     C      0.194000000000     0.500000000000     0.347000000000     0          
C133     C      0.183600000000     0.500000000000     0.306000000000     0          
N134     N      0.214000000000     0.500000000000     0.275800000000     0          
C135     C      0.255000000000     0.500000000000     0.287000000000     0          
C136     C      0.266000000000     0.500000000000     0.329000000000     0          
C137     C      0.235000000000     0.500000000000     0.358600000000     0          
O138     O      0.609400000000     0.000000000000     0.442300000000     0          
O139     O      0.609400000000     0.500000000000     0.942300000000     0          
C140     C      0.663000000000     0.500000000000     0.890000000000     0          
C141     C      0.694000000000     0.500000000000     0.847000000000     0          
C142     C      0.683600000000     0.500000000000     0.806000000000     0          
N143     N      0.714000000000     0.500000000000     0.775800000000     0          
C144     C      0.755000000000     0.500000000000     0.787000000000     0          
C145     C      0.766000000000     0.500000000000     0.829000000000     0          
C146     C      0.735000000000     0.500000000000     0.858600000000     0          
O147     O      0.109400000000     0.000000000000     0.057700000000     0          
C148     C      0.163000000000     0.000000000000     0.110000000000     0          
C149     C      0.194000000000     0.000000000000     0.153000000000     0          
C150     C      0.183600000000     0.000000000000     0.194000000000     0          
N151     N      0.214000000000     0.000000000000     0.224200000000     0          
C152     C      0.255000000000     0.000000000000     0.213000000000     0          
C153     C      0.266000000000     0.000000000000     0.171000000000     0          
C154     C      0.235000000000     0.000000000000     0.141400000000     0          
O155     O      0.109400000000     0.500000000000     0.557700000000     0          
C156     C      0.163000000000     0.500000000000     0.610000000000     0          
C157     C      0.194000000000     0.500000000000     0.653000000000     0          
C158     C      0.183600000000     0.500000000000     0.694000000000     0          
N159     N      0.214000000000     0.500000000000     0.724200000000     0          
C160     C      0.255000000000     0.500000000000     0.713000000000     0          
C161     C      0.266000000000     0.500000000000     0.671000000000     0          
C162     C      0.235000000000     0.500000000000     0.641400000000     0          
O163     O      0.609400000000     0.000000000000     0.557700000000     0          
C164     C      0.663000000000     0.000000000000     0.610000000000     0          
C165     C      0.694000000000     0.000000000000     0.653000000000     0          
C166     C      0.683600000000     0.000000000000     0.694000000000     0          
N167     N      0.714000000000     0.000000000000     0.724200000000     0          
C168     C      0.755000000000     0.000000000000     0.713000000000     0          
C169     C      0.766000000000     0.000000000000     0.671000000000     0          
C170     C      0.735000000000     0.000000000000     0.641400000000     0          
O171     O      0.609400000000     0.500000000000     0.057700000000     0          
C172     C      0.663000000000     0.500000000000     0.110000000000     0          
C173     C      0.694000000000     0.500000000000     0.153000000000     0          
C174     C      0.683600000000     0.500000000000     0.194000000000     0          
N175     N      0.714000000000     0.500000000000     0.224200000000     0          
C176     C      0.755000000000     0.500000000000     0.213000000000     0          
C177     C      0.766000000000     0.500000000000     0.171000000000     0          
C178     C      0.735000000000     0.500000000000     0.141400000000     0          
O179     O      0.890600000000     0.000000000000     0.942300000000     0          
O180     O      0.890600000000     0.500000000000     0.442300000000     0          
O181     O      0.390600000000     0.000000000000     0.442300000000     0          
O182     O      0.390600000000     0.500000000000     0.942300000000     0          
O183     O      0.890600000000     0.000000000000     0.057700000000     0          
C184     C      0.837000000000     0.000000000000     0.110000000000     0          
C185     C      0.806000000000     0.000000000000     0.153000000000     0          
C186     C      0.816400000000     0.000000000000     0.194000000000     0          
N187     N      0.786000000000     0.000000000000     0.224200000000     0          
C188     C      0.745000000000     0.000000000000     0.213000000000     0          
C189     C      0.734000000000     0.000000000000     0.171000000000     0          
C190     C      0.765000000000     0.000000000000     0.141400000000     0          
O191     O      0.890600000000     0.500000000000     0.557700000000     0          
O192     O      0.390600000000     0.000000000000     0.557700000000     0          
C193     C      0.337000000000     0.000000000000     0.610000000000     0          
C194     C      0.306000000000     0.000000000000     0.653000000000     0          
C195     C      0.316400000000     0.000000000000     0.694000000000     0          
N196     N      0.286000000000     0.000000000000     0.724200000000     0          
C197     C      0.245000000000     0.000000000000     0.713000000000     0          
C198     C      0.234000000000     0.000000000000     0.671000000000     0          
C199     C      0.265000000000     0.000000000000     0.641400000000     0          
O200     O      0.390600000000     0.500000000000     0.057700000000     0          
O201     O      0.942300000000     0.109400000000     0.000000000000     0          
O202     O      0.942300000000     0.609400000000     0.500000000000     0          
O203     O      0.442300000000     0.109400000000     0.500000000000     0          
O204     O      0.442300000000     0.609400000000     0.000000000000     0          
O205     O      0.057700000000     0.109400000000     0.000000000000     0          
O206     O      0.057700000000     0.609400000000     0.500000000000     0          
O207     O      0.557700000000     0.109400000000     0.500000000000     0          
O208     O      0.557700000000     0.609400000000     0.000000000000     0          
O209     O      0.942300000000     0.890600000000     0.000000000000     0          
C210     C      0.890000000000     0.837000000000     0.000000000000     0          
C211     C      0.847000000000     0.806000000000     0.000000000000     0          
C212     C      0.806000000000     0.816400000000     0.000000000000     0          
N213     N      0.775800000000     0.786000000000     0.000000000000     0          
C214     C      0.787000000000     0.745000000000     0.000000000000     0          
C215     C      0.829000000000     0.734000000000     0.000000000000     0          
C216     C      0.858600000000     0.765000000000     0.000000000000     0          
O217     O      0.942300000000     0.390600000000     0.500000000000     0          
C218     C      0.890000000000     0.337000000000     0.500000000000     0          
C219     C      0.847000000000     0.306000000000     0.500000000000     0          
C220     C      0.806000000000     0.316400000000     0.500000000000     0          
N221     N      0.775800000000     0.286000000000     0.500000000000     0          
C222     C      0.787000000000     0.245000000000     0.500000000000     0          
C223     C      0.829000000000     0.234000000000     0.500000000000     0          
C224     C      0.858600000000     0.265000000000     0.500000000000     0          
O225     O      0.442300000000     0.890600000000     0.500000000000     0          
C226     C      0.390000000000     0.837000000000     0.500000000000     0          
C227     C      0.347000000000     0.806000000000     0.500000000000     0          
C228     C      0.306000000000     0.816400000000     0.500000000000     0          
N229     N      0.275800000000     0.786000000000     0.500000000000     0          
C230     C      0.287000000000     0.745000000000     0.500000000000     0          
C231     C      0.329000000000     0.734000000000     0.500000000000     0          
C232     C      0.358600000000     0.765000000000     0.500000000000     0          
O233     O      0.442300000000     0.390600000000     0.000000000000     0          
C234     C      0.390000000000     0.337000000000     0.000000000000     0          
C235     C      0.347000000000     0.306000000000     0.000000000000     0          
C236     C      0.306000000000     0.316400000000     0.000000000000     0          
N237     N      0.275800000000     0.286000000000     0.000000000000     0          
C238     C      0.287000000000     0.245000000000     0.000000000000     0          
C239     C      0.329000000000     0.234000000000     0.000000000000     0          
C240     C      0.358600000000     0.265000000000     0.000000000000     0          
O241     O      0.057700000000     0.890600000000     0.000000000000     0          
C242     C      0.110000000000     0.837000000000     0.000000000000     0          
C243     C      0.153000000000     0.806000000000     0.000000000000     0          
C244     C      0.194000000000     0.816400000000     0.000000000000     0          
N245     N      0.224200000000     0.786000000000     0.000000000000     0          
C246     C      0.213000000000     0.745000000000     0.000000000000     0          
C247     C      0.171000000000     0.734000000000     0.000000000000     0          
C248     C      0.141400000000     0.765000000000     0.000000000000     0          
O249     O      0.057700000000     0.390600000000     0.500000000000     0          
C250     C      0.110000000000     0.337000000000     0.500000000000     0          
C251     C      0.153000000000     0.306000000000     0.500000000000     0          
C252     C      0.194000000000     0.316400000000     0.500000000000     0          
N253     N      0.224200000000     0.286000000000     0.500000000000     0          
C254     C      0.213000000000     0.245000000000     0.500000000000     0          
C255     C      0.171000000000     0.234000000000     0.500000000000     0          
C256     C      0.141400000000     0.265000000000     0.500000000000     0          
O257     O      0.557700000000     0.890600000000     0.500000000000     0          
C258     C      0.610000000000     0.837000000000     0.500000000000     0          
C259     C      0.653000000000     0.806000000000     0.500000000000     0          
C260     C      0.694000000000     0.816400000000     0.500000000000     0          
N261     N      0.724200000000     0.786000000000     0.500000000000     0          
C262     C      0.713000000000     0.745000000000     0.500000000000     0          
C263     C      0.671000000000     0.734000000000     0.500000000000     0          
C264     C      0.641400000000     0.765000000000     0.500000000000     0          
O265     O      0.557700000000     0.390600000000     0.000000000000     0          
C266     C      0.610000000000     0.337000000000     0.000000000000     0          
C267     C      0.653000000000     0.306000000000     0.000000000000     0          
C268     C      0.694000000000     0.316400000000     0.000000000000     0          
N269     N      0.724200000000     0.286000000000     0.000000000000     0          
C270     C      0.713000000000     0.245000000000     0.000000000000     0          
C271     C      0.671000000000     0.234000000000     0.000000000000     0          
C272     C      0.641400000000     0.265000000000     0.000000000000     0          
O273     O      0.942300000000     0.000000000000     0.890600000000     0          
C274     C      0.890000000000     0.000000000000     0.837000000000     0          
C275     C      0.847000000000     0.000000000000     0.806000000000     0          
C276     C      0.806000000000     0.000000000000     0.816400000000     0          
N277     N      0.775800000000     0.000000000000     0.786000000000     0          
C278     C      0.787000000000     0.000000000000     0.745000000000     0          
C279     C      0.829000000000     0.000000000000     0.734000000000     0          
C280     C      0.858600000000     0.000000000000     0.765000000000     0          
O281     O      0.942300000000     0.500000000000     0.390600000000     0          
C282     C      0.890000000000     0.500000000000     0.337000000000     0          
C283     C      0.847000000000     0.500000000000     0.306000000000     0          
C284     C      0.806000000000     0.500000000000     0.316400000000     0          
N285     N      0.775800000000     0.500000000000     0.286000000000     0          
C286     C      0.787000000000     0.500000000000     0.245000000000     0          
C287     C      0.829000000000     0.500000000000     0.234000000000     0          
C288     C      0.858600000000     0.500000000000     0.265000000000     0          
O289     O      0.442300000000     0.000000000000     0.390600000000     0          
C290     C      0.390000000000     0.000000000000     0.337000000000     0          
C291     C      0.347000000000     0.000000000000     0.306000000000     0          
C292     C      0.306000000000     0.000000000000     0.316400000000     0          
N293     N      0.275800000000     0.000000000000     0.286000000000     0          
C294     C      0.287000000000     0.000000000000     0.245000000000     0          
C295     C      0.329000000000     0.000000000000     0.234000000000     0          
C296     C      0.358600000000     0.000000000000     0.265000000000     0          
O297     O      0.442300000000     0.500000000000     0.890600000000     0          
C298     C      0.390000000000     0.500000000000     0.837000000000     0          
C299     C      0.347000000000     0.500000000000     0.806000000000     0          
C300     C      0.306000000000     0.500000000000     0.816400000000     0          
N301     N      0.275800000000     0.500000000000     0.786000000000     0          
C302     C      0.287000000000     0.500000000000     0.745000000000     0          
C303     C      0.329000000000     0.500000000000     0.734000000000     0          
C304     C      0.358600000000     0.500000000000     0.765000000000     0          
O305     O      0.057700000000     0.000000000000     0.890600000000     0          
C306     C      0.110000000000     0.000000000000     0.837000000000     0          
C307     C      0.153000000000     0.000000000000     0.806000000000     0          
C308     C      0.194000000000     0.000000000000     0.816400000000     0          
N309     N      0.224200000000     0.000000000000     0.786000000000     0          
C310     C      0.213000000000     0.000000000000     0.745000000000     0          
C311     C      0.171000000000     0.000000000000     0.734000000000     0          
C312     C      0.141400000000     0.000000000000     0.765000000000     0          
O313     O      0.057700000000     0.500000000000     0.390600000000     0          
O314     O      0.557700000000     0.000000000000     0.390600000000     0          
C315     C      0.610000000000     0.000000000000     0.337000000000     0          
C316     C      0.653000000000     0.000000000000     0.306000000000     0          
C317     C      0.694000000000     0.000000000000     0.316400000000     0          
N318     N      0.724200000000     0.000000000000     0.286000000000     0          
C319     C      0.713000000000     0.000000000000     0.245000000000     0          
C320     C      0.671000000000     0.000000000000     0.234000000000     0          
C321     C      0.641400000000     0.000000000000     0.265000000000     0          
O322     O      0.557700000000     0.500000000000     0.890600000000     0          
O323     O      0.942300000000     0.000000000000     0.109400000000     0          
O324     O      0.942300000000     0.500000000000     0.609400000000     0          
C325     C      0.890000000000     0.500000000000     0.663000000000     0          
C326     C      0.847000000000     0.500000000000     0.694000000000     0          
C327     C      0.806000000000     0.500000000000     0.683600000000     0          
N328     N      0.775800000000     0.500000000000     0.714000000000     0          
C329     C      0.787000000000     0.500000000000     0.755000000000     0          
C330     C      0.829000000000     0.500000000000     0.766000000000     0          
C331     C      0.858600000000     0.500000000000     0.735000000000     0          
O332     O      0.442300000000     0.000000000000     0.609400000000     0          
O333     O      0.442300000000     0.500000000000     0.109400000000     0          
C334     C      0.390000000000     0.500000000000     0.163000000000     0          
C335     C      0.347000000000     0.500000000000     0.194000000000     0          
C336     C      0.306000000000     0.500000000000     0.183600000000     0          
N337     N      0.275800000000     0.500000000000     0.214000000000     0          
C338     C      0.287000000000     0.500000000000     0.255000000000     0          
C339     C      0.329000000000     0.500000000000     0.266000000000     0          
C340     C      0.358600000000     0.500000000000     0.235000000000     0          
O341     O      0.057700000000     0.000000000000     0.109400000000     0          
O342     O      0.057700000000     0.500000000000     0.609400000000     0          
O343     O      0.557700000000     0.000000000000     0.609400000000     0          
O344     O      0.557700000000     0.500000000000     0.109400000000     0          
O345     O      0.000000000000     0.109400000000     0.057700000000     0          
O346     O      0.000000000000     0.609400000000     0.557700000000     0          
O347     O      0.500000000000     0.109400000000     0.557700000000     0          
O348     O      0.500000000000     0.609400000000     0.057700000000     0          
O349     O      0.000000000000     0.109400000000     0.942300000000     0          
C350     C      0.000000000000     0.163000000000     0.890000000000     0          
C351     C      0.000000000000     0.194000000000     0.847000000000     0          
C352     C      0.000000000000     0.183600000000     0.806000000000     0          
N353     N      0.000000000000     0.214000000000     0.775800000000     0          
C354     C      0.000000000000     0.255000000000     0.787000000000     0          
C355     C      0.000000000000     0.266000000000     0.829000000000     0          
C356     C      0.000000000000     0.235000000000     0.858600000000     0          
O357     O      0.000000000000     0.609400000000     0.442300000000     0          
O358     O      0.500000000000     0.109400000000     0.442300000000     0          
O359     O      0.500000000000     0.609400000000     0.942300000000     0          
O360     O      0.000000000000     0.890600000000     0.057700000000     0          
C361     C      0.000000000000     0.837000000000     0.110000000000     0          
C362     C      0.000000000000     0.806000000000     0.153000000000     0          
C363     C      0.000000000000     0.816400000000     0.194000000000     0          
N364     N      0.000000000000     0.786000000000     0.224200000000     0          
C365     C      0.000000000000     0.745000000000     0.213000000000     0          
C366     C      0.000000000000     0.734000000000     0.171000000000     0          
C367     C      0.000000000000     0.765000000000     0.141400000000     0          
O368     O      0.000000000000     0.390600000000     0.557700000000     0          
O369     O      0.500000000000     0.890600000000     0.557700000000     0          
C370     C      0.500000000000     0.837000000000     0.610000000000     0          
C371     C      0.500000000000     0.806000000000     0.653000000000     0          
C372     C      0.500000000000     0.816400000000     0.694000000000     0          
N373     N      0.500000000000     0.786000000000     0.724200000000     0          
C374     C      0.500000000000     0.745000000000     0.713000000000     0          
C375     C      0.500000000000     0.734000000000     0.671000000000     0          
C376     C      0.500000000000     0.765000000000     0.641400000000     0          
O377     O      0.500000000000     0.390600000000     0.057700000000     0          
C378     C      0.500000000000     0.337000000000     0.110000000000     0          
C379     C      0.500000000000     0.306000000000     0.153000000000     0          
C380     C      0.500000000000     0.316400000000     0.194000000000     0          
N381     N      0.500000000000     0.286000000000     0.224200000000     0          
C382     C      0.500000000000     0.245000000000     0.213000000000     0          
C383     C      0.500000000000     0.234000000000     0.171000000000     0          
C384     C      0.500000000000     0.265000000000     0.141400000000     0          
O385     O      0.000000000000     0.890600000000     0.942300000000     0          
C386     C      0.000000000000     0.837000000000     0.890000000000     0          
C387     C      0.000000000000     0.806000000000     0.847000000000     0          
C388     C      0.000000000000     0.816400000000     0.806000000000     0          
N389     N      0.000000000000     0.786000000000     0.775800000000     0          
C390     C      0.000000000000     0.745000000000     0.787000000000     0          
C391     C      0.000000000000     0.734000000000     0.829000000000     0          
C392     C      0.000000000000     0.765000000000     0.858600000000     0          
O393     O      0.000000000000     0.390600000000     0.442300000000     0          
C394     C      0.000000000000     0.337000000000     0.390000000000     0          
C395     C      0.000000000000     0.306000000000     0.347000000000     0          
C396     C      0.000000000000     0.316400000000     0.306000000000     0          
N397     N      0.000000000000     0.286000000000     0.275800000000     0          
C398     C      0.000000000000     0.245000000000     0.287000000000     0          
C399     C      0.000000000000     0.234000000000     0.329000000000     0          
C400     C      0.000000000000     0.265000000000     0.358600000000     0          
O401     O      0.500000000000     0.890600000000     0.442300000000     0          
C402     C      0.500000000000     0.837000000000     0.390000000000     0          
C403     C      0.500000000000     0.806000000000     0.347000000000     0          
C404     C      0.500000000000     0.816400000000     0.306000000000     0          
N405     N      0.500000000000     0.786000000000     0.275800000000     0          
C406     C      0.500000000000     0.745000000000     0.287000000000     0          
C407     C      0.500000000000     0.734000000000     0.329000000000     0          
C408     C      0.500000000000     0.765000000000     0.358600000000     0          
O409     O      0.500000000000     0.390600000000     0.942300000000     0          
C410     C      0.500000000000     0.337000000000     0.890000000000     0          
C411     C      0.500000000000     0.306000000000     0.847000000000     0          
C412     C      0.500000000000     0.316400000000     0.806000000000     0          
N413     N      0.500000000000     0.286000000000     0.775800000000     0          
C414     C      0.500000000000     0.245000000000     0.787000000000     0          
C415     C      0.500000000000     0.234000000000     0.829000000000     0          
C416     C      0.500000000000     0.265000000000     0.858600000000     0          
O417     O      0.109400000000     0.942300000000     0.000000000000     0          
O418     O      0.109400000000     0.442300000000     0.500000000000     0          
O419     O      0.609400000000     0.942300000000     0.500000000000     0          
O420     O      0.609400000000     0.442300000000     0.000000000000     0          
O421     O      0.109400000000     0.057700000000     0.000000000000     0          
C422     C      0.163000000000     0.110000000000     0.000000000000     0          
C423     C      0.194000000000     0.153000000000     0.000000000000     0          
C424     C      0.183600000000     0.194000000000     0.000000000000     0          
N425     N      0.214000000000     0.224200000000     0.000000000000     0          
C426     C      0.255000000000     0.213000000000     0.000000000000     0          
C427     C      0.266000000000     0.171000000000     0.000000000000     0          
C428     C      0.235000000000     0.141400000000     0.000000000000     0          
O429     O      0.109400000000     0.557700000000     0.500000000000     0          
C430     C      0.163000000000     0.610000000000     0.500000000000     0          
C431     C      0.194000000000     0.653000000000     0.500000000000     0          
C432     C      0.183600000000     0.694000000000     0.500000000000     0          
N433     N      0.214000000000     0.724200000000     0.500000000000     0          
C434     C      0.255000000000     0.713000000000     0.500000000000     0          
C435     C      0.266000000000     0.671000000000     0.500000000000     0          
C436     C      0.235000000000     0.641400000000     0.500000000000     0          
O437     O      0.609400000000     0.057700000000     0.500000000000     0          
C438     C      0.663000000000     0.110000000000     0.500000000000     0          
C439     C      0.694000000000     0.153000000000     0.500000000000     0          
C440     C      0.683600000000     0.194000000000     0.500000000000     0          
N441     N      0.714000000000     0.224200000000     0.500000000000     0          
C442     C      0.755000000000     0.213000000000     0.500000000000     0          
C443     C      0.766000000000     0.171000000000     0.500000000000     0          
C444     C      0.735000000000     0.141400000000     0.500000000000     0          
O445     O      0.609400000000     0.557700000000     0.000000000000     0          
C446     C      0.663000000000     0.610000000000     0.000000000000     0          
C447     C      0.694000000000     0.653000000000     0.000000000000     0          
C448     C      0.683600000000     0.694000000000     0.000000000000     0          
N449     N      0.714000000000     0.724200000000     0.000000000000     0          
C450     C      0.755000000000     0.713000000000     0.000000000000     0          
C451     C      0.766000000000     0.671000000000     0.000000000000     0          
C452     C      0.735000000000     0.641400000000     0.000000000000     0          
O453     O      0.890600000000     0.942300000000     0.000000000000     0          
O454     O      0.890600000000     0.442300000000     0.500000000000     0          
O455     O      0.390600000000     0.942300000000     0.500000000000     0          
O456     O      0.390600000000     0.442300000000     0.000000000000     0          
O457     O      0.890600000000     0.057700000000     0.000000000000     0          
C458     C      0.837000000000     0.110000000000     0.000000000000     0          
C459     C      0.806000000000     0.153000000000     0.000000000000     0          
C460     C      0.816400000000     0.194000000000     0.000000000000     0          
N461     N      0.786000000000     0.224200000000     0.000000000000     0          
C462     C      0.745000000000     0.213000000000     0.000000000000     0          
C463     C      0.734000000000     0.171000000000     0.000000000000     0          
C464     C      0.765000000000     0.141400000000     0.000000000000     0          
O465     O      0.890600000000     0.557700000000     0.500000000000     0          
C466     C      0.837000000000     0.610000000000     0.500000000000     0          
C467     C      0.806000000000     0.653000000000     0.500000000000     0          
C468     C      0.816400000000     0.694000000000     0.500000000000     0          
N469     N      0.786000000000     0.724200000000     0.500000000000     0          
C470     C      0.745000000000     0.713000000000     0.500000000000     0          
C471     C      0.734000000000     0.671000000000     0.500000000000     0          
C472     C      0.765000000000     0.641400000000     0.500000000000     0          
O473     O      0.390600000000     0.057700000000     0.500000000000     0          
C474     C      0.337000000000     0.110000000000     0.500000000000     0          
C475     C      0.306000000000     0.153000000000     0.500000000000     0          
C476     C      0.316400000000     0.194000000000     0.500000000000     0          
N477     N      0.286000000000     0.224200000000     0.500000000000     0          
C478     C      0.245000000000     0.213000000000     0.500000000000     0          
C479     C      0.234000000000     0.171000000000     0.500000000000     0          
C480     C      0.265000000000     0.141400000000     0.500000000000     0          
O481     O      0.390600000000     0.557700000000     0.000000000000     0          
C482     C      0.337000000000     0.610000000000     0.000000000000     0          
C483     C      0.306000000000     0.653000000000     0.000000000000     0          
C484     C      0.316400000000     0.694000000000     0.000000000000     0          
N485     N      0.286000000000     0.724200000000     0.000000000000     0          
C486     C      0.245000000000     0.713000000000     0.000000000000     0          
C487     C      0.234000000000     0.671000000000     0.000000000000     0          
C488     C      0.265000000000     0.641400000000     0.000000000000     0          
C489     C      0.000000000000     0.904700000000     0.095300000000     0          
C490     C      0.000000000000     0.868500000000     0.131500000000     0          
C491     C      0.000000000000     0.404700000000     0.595300000000     0          
C492     C      0.000000000000     0.368500000000     0.631500000000     0          
C493     C      0.500000000000     0.904700000000     0.595300000000     0          
C494     C      0.500000000000     0.868500000000     0.631500000000     0          
C495     C      0.500000000000     0.404700000000     0.095300000000     0          
C496     C      0.500000000000     0.368500000000     0.131500000000     0          
C497     C      0.000000000000     0.095300000000     0.095300000000     0          
C498     C      0.000000000000     0.131500000000     0.131500000000     0          
C499     C      0.000000000000     0.595300000000     0.595300000000     0          
C500     C      0.000000000000     0.631500000000     0.631500000000     0          
C501     C      0.500000000000     0.095300000000     0.595300000000     0          
C502     C      0.500000000000     0.131500000000     0.631500000000     0          
C503     C      0.500000000000     0.595300000000     0.095300000000     0          
C504     C      0.500000000000     0.631500000000     0.131500000000     0          
C505     C      0.000000000000     0.904700000000     0.904700000000     0          
C506     C      0.000000000000     0.868500000000     0.868500000000     0          
C507     C      0.000000000000     0.404700000000     0.404700000000     0          
C508     C      0.000000000000     0.368500000000     0.368500000000     0          
C509     C      0.500000000000     0.904700000000     0.404700000000     0          
C510     C      0.500000000000     0.868500000000     0.368500000000     0          
C511     C      0.500000000000     0.404700000000     0.904700000000     0          
C512     C      0.500000000000     0.368500000000     0.868500000000     0          
C513     C      0.000000000000     0.095300000000     0.904700000000     0          
C514     C      0.000000000000     0.131500000000     0.868500000000     0          
C515     C      0.000000000000     0.595300000000     0.404700000000     0          
C516     C      0.000000000000     0.631500000000     0.368500000000     0          
C517     C      0.500000000000     0.095300000000     0.404700000000     0          
C518     C      0.500000000000     0.131500000000     0.368500000000     0          
C519     C      0.500000000000     0.595300000000     0.904700000000     0          
C520     C      0.500000000000     0.631500000000     0.868500000000     0          
C521     C      0.095300000000     0.000000000000     0.904700000000     0          
C522     C      0.131500000000     0.000000000000     0.868500000000     0          
C523     C      0.095300000000     0.500000000000     0.404700000000     0          
C524     C      0.131500000000     0.500000000000     0.368500000000     0          
C525     C      0.595300000000     0.000000000000     0.404700000000     0          
C526     C      0.631500000000     0.000000000000     0.368500000000     0          
C527     C      0.595300000000     0.500000000000     0.904700000000     0          
C528     C      0.631500000000     0.500000000000     0.868500000000     0          
C529     C      0.095300000000     0.000000000000     0.095300000000     0          
C530     C      0.131500000000     0.000000000000     0.131500000000     0          
C531     C      0.095300000000     0.500000000000     0.595300000000     0          
C532     C      0.131500000000     0.500000000000     0.631500000000     0          
C533     C      0.595300000000     0.000000000000     0.595300000000     0          
C534     C      0.631500000000     0.000000000000     0.631500000000     0          
C535     C      0.595300000000     0.500000000000     0.095300000000     0          
C536     C      0.631500000000     0.500000000000     0.131500000000     0          
C537     C      0.904700000000     0.000000000000     0.904700000000     0          
C538     C      0.868500000000     0.000000000000     0.868500000000     0          
C539     C      0.904700000000     0.500000000000     0.404700000000     0          
C540     C      0.868500000000     0.500000000000     0.368500000000     0          
C541     C      0.404700000000     0.000000000000     0.404700000000     0          
C542     C      0.368500000000     0.000000000000     0.368500000000     0          
C543     C      0.404700000000     0.500000000000     0.904700000000     0          
C544     C      0.368500000000     0.500000000000     0.868500000000     0          
C545     C      0.904700000000     0.000000000000     0.095300000000     0          
C546     C      0.868500000000     0.000000000000     0.131500000000     0          
C547     C      0.904700000000     0.500000000000     0.595300000000     0          
C548     C      0.868500000000     0.500000000000     0.631500000000     0          
C549     C      0.404700000000     0.000000000000     0.595300000000     0          
C550     C      0.368500000000     0.000000000000     0.631500000000     0          
C551     C      0.404700000000     0.500000000000     0.095300000000     0          
C552     C      0.368500000000     0.500000000000     0.131500000000     0          
C553     C      0.904700000000     0.095300000000     0.000000000000     0          
C554     C      0.868500000000     0.131500000000     0.000000000000     0          
C555     C      0.904700000000     0.595300000000     0.500000000000     0          
C556     C      0.868500000000     0.631500000000     0.500000000000     0          
C557     C      0.404700000000     0.095300000000     0.500000000000     0          
C558     C      0.368500000000     0.131500000000     0.500000000000     0          
C559     C      0.404700000000     0.595300000000     0.000000000000     0          
C560     C      0.368500000000     0.631500000000     0.000000000000     0          
C561     C      0.095300000000     0.095300000000     0.000000000000     0          
C562     C      0.131500000000     0.131500000000     0.000000000000     0          
C563     C      0.095300000000     0.595300000000     0.500000000000     0          
C564     C      0.131500000000     0.631500000000     0.500000000000     0          
C565     C      0.595300000000     0.095300000000     0.500000000000     0          
C566     C      0.631500000000     0.131500000000     0.500000000000     0          
C567     C      0.595300000000     0.595300000000     0.000000000000     0          
C568     C      0.631500000000     0.631500000000     0.000000000000     0          
C569     C      0.904700000000     0.904700000000     0.000000000000     0          
C570     C      0.868500000000     0.868500000000     0.000000000000     0          
C571     C      0.904700000000     0.404700000000     0.500000000000     0          
C572     C      0.868500000000     0.368500000000     0.500000000000     0          
C573     C      0.404700000000     0.904700000000     0.500000000000     0          
C574     C      0.368500000000     0.868500000000     0.500000000000     0          
C575     C      0.404700000000     0.404700000000     0.000000000000     0          
C576     C      0.368500000000     0.368500000000     0.000000000000     0          
C577     C      0.095300000000     0.904700000000     0.000000000000     0          
C578     C      0.131500000000     0.868500000000     0.000000000000     0          
C579     C      0.095300000000     0.404700000000     0.500000000000     0          
C580     C      0.131500000000     0.368500000000     0.500000000000     0          
C581     C      0.595300000000     0.904700000000     0.500000000000     0          
C582     C      0.631500000000     0.868500000000     0.500000000000     0          
C583     C      0.595300000000     0.404700000000     0.000000000000     0          
C584     C      0.631500000000     0.368500000000     0.000000000000     0          


