data_EMIYUW

_audit_creation_method RASPA-1.0
_audit_creation_date 2020-11-2
_audit_author_name 'Rocio Bueno-Perez'

_cell_length_a    16.2326
_cell_length_b    33.0024
_cell_length_c    35.7503
_cell_angle_alpha 90
_cell_angle_beta  90
_cell_angle_gamma 90
_cell_volume      19152

_symmetry_cell_setting          orthorhombic
_symmetry_space_group_name_Hall 'P 1'
_symmetry_space_group_name_H-M  'P 1'
_symmetry_Int_Tables_number     1

_symmetry_equiv_pos_as_xyz 'x,y,z'

loop_
_atom_site_label
_atom_site_type_symbol
_atom_site_fract_x
_atom_site_fract_y
_atom_site_fract_z
_atom_site_charge
O1       O      0.417900000000     0.460010000000     0.401060000000     0          
C1       C      0.370400000000     0.431310000000     0.410180000000     0          
O4       O      0.347700000000     0.422570000000     0.442910000000     0          
C2       C      0.341200000000     0.405960000000     0.378000000000     0          
C3       C      0.290900000000     0.373000000000     0.382760000000     0          
C4       C      0.370300000000     0.415770000000     0.342280000000     0          
H3       H      0.272200000000     0.366000000000     0.407100000000     0          
C5       C      0.267100000000     0.349640000000     0.352120000000     0          
C6       C      0.345900000000     0.392660000000     0.312190000000     0          
H4       H      0.406400000000     0.438100000000     0.338800000000     0          
H5       H      0.231500000000     0.327100000000     0.355500000000     0          
C7       C      0.295500000000     0.359570000000     0.316470000000     0          
H6       H      0.364400000000     0.399800000000     0.287900000000     0          
C8       C      0.269800000000     0.335900000000     0.282730000000     0          
C9       C      0.269100000000     0.293970000000     0.282580000000     0          
H7       H      0.281800000000     0.279600000000     0.304900000000     0          
Zr1      Zr     0.500000000000     0.500000000000     0.431880000000     0          
O2       O      0.608100000000     0.500000000000     0.467270000000     0          
O3       O      0.500000000000     0.553530000000     0.466870000000     0          
Zr2      Zr     0.609530000000     0.553890000000     0.500000000000     0          
C10      C      0.250000000000     0.356760000000     0.250000000000     0          
C11      C      0.250000000000     0.272310000000     0.250000000000     0          
H8       H      0.250000000000     0.385500000000     0.250000000000     0          
O1       O      0.582100000000     0.539990000000     0.401060000000     0          
C1       C      0.629600000000     0.568690000000     0.410180000000     0          
O4       O      0.652300000000     0.577430000000     0.442910000000     0          
C2       C      0.658800000000     0.594040000000     0.378000000000     0          
C3       C      0.709100000000     0.627000000000     0.382760000000     0          
C4       C      0.629700000000     0.584230000000     0.342280000000     0          
H3       H      0.727800000000     0.634000000000     0.407100000000     0          
C5       C      0.732900000000     0.650360000000     0.352120000000     0          
C6       C      0.654100000000     0.607340000000     0.312190000000     0          
H4       H      0.593600000000     0.561900000000     0.338800000000     0          
H5       H      0.768500000000     0.672900000000     0.355500000000     0          
C7       C      0.704500000000     0.640430000000     0.316470000000     0          
H6       H      0.635600000000     0.600200000000     0.287900000000     0          
C8       C      0.730200000000     0.664100000000     0.282730000000     0          
C9       C      0.730900000000     0.706030000000     0.282580000000     0          
H7       H      0.718200000000     0.720400000000     0.304900000000     0          
O2       O      0.391900000000     0.500000000000     0.467270000000     0          
O3       O      0.500000000000     0.446470000000     0.466870000000     0          
Zr2      Zr     0.390470000000     0.446110000000     0.500000000000     0          
C10      C      0.750000000000     0.643240000000     0.250000000000     0          
C11      C      0.750000000000     0.727690000000     0.250000000000     0          
H8       H      0.750000000000     0.614500000000     0.250000000000     0          
O1       O      0.417900000000     0.539990000000     0.598940000000     0          
C1       C      0.370400000000     0.568690000000     0.589820000000     0          
O4       O      0.347700000000     0.577430000000     0.557090000000     0          
C2       C      0.341200000000     0.594040000000     0.622000000000     0          
C3       C      0.290900000000     0.627000000000     0.617240000000     0          
C4       C      0.370300000000     0.584230000000     0.657720000000     0          
H3       H      0.272200000000     0.634000000000     0.592900000000     0          
C5       C      0.267100000000     0.650360000000     0.647880000000     0          
C6       C      0.345900000000     0.607340000000     0.687810000000     0          
H4       H      0.406400000000     0.561900000000     0.661200000000     0          
H5       H      0.231500000000     0.672900000000     0.644500000000     0          
C7       C      0.295500000000     0.640430000000     0.683530000000     0          
H6       H      0.364400000000     0.600200000000     0.712100000000     0          
C8       C      0.269800000000     0.664100000000     0.717270000000     0          
C9       C      0.269100000000     0.706030000000     0.717420000000     0          
H7       H      0.281800000000     0.720400000000     0.695100000000     0          
Zr1      Zr     0.500000000000     0.500000000000     0.568120000000     0          
O2       O      0.608100000000     0.500000000000     0.532730000000     0          
O3       O      0.500000000000     0.446470000000     0.533130000000     0          
Zr2      Zr     0.609530000000     0.446110000000     0.500000000000     0          
C10      C      0.250000000000     0.643240000000     0.750000000000     0          
C11      C      0.250000000000     0.727690000000     0.750000000000     0          
H8       H      0.250000000000     0.614500000000     0.750000000000     0          
O1       O      0.582100000000     0.460010000000     0.598940000000     0          
C1       C      0.629600000000     0.431310000000     0.589820000000     0          
O4       O      0.652300000000     0.422570000000     0.557090000000     0          
C2       C      0.658800000000     0.405960000000     0.622000000000     0          
C3       C      0.709100000000     0.373000000000     0.617240000000     0          
C4       C      0.629700000000     0.415770000000     0.657720000000     0          
H3       H      0.727800000000     0.366000000000     0.592900000000     0          
C5       C      0.732900000000     0.349640000000     0.647880000000     0          
C6       C      0.654100000000     0.392660000000     0.687810000000     0          
H4       H      0.593600000000     0.438100000000     0.661200000000     0          
H5       H      0.768500000000     0.327100000000     0.644500000000     0          
C7       C      0.704500000000     0.359570000000     0.683530000000     0          
H6       H      0.635600000000     0.399800000000     0.712100000000     0          
C8       C      0.730200000000     0.335900000000     0.717270000000     0          
C9       C      0.730900000000     0.293970000000     0.717420000000     0          
H7       H      0.718200000000     0.279600000000     0.695100000000     0          
O2       O      0.391900000000     0.500000000000     0.532730000000     0          
O3       O      0.500000000000     0.553530000000     0.533130000000     0          
Zr2      Zr     0.390470000000     0.553890000000     0.500000000000     0          
C10      C      0.750000000000     0.356760000000     0.750000000000     0          
C11      C      0.750000000000     0.272310000000     0.750000000000     0          
H8       H      0.750000000000     0.385500000000     0.750000000000     0          
O1       O      0.582100000000     0.539990000000     0.598940000000     0          
C1       C      0.629600000000     0.568690000000     0.589820000000     0          
O4       O      0.652300000000     0.577430000000     0.557090000000     0          
C2       C      0.658800000000     0.594040000000     0.622000000000     0          
C3       C      0.709100000000     0.627000000000     0.617240000000     0          
C4       C      0.629700000000     0.584230000000     0.657720000000     0          
H3       H      0.727800000000     0.634000000000     0.592900000000     0          
C5       C      0.732900000000     0.650360000000     0.647880000000     0          
C6       C      0.654100000000     0.607340000000     0.687810000000     0          
H4       H      0.593600000000     0.561900000000     0.661200000000     0          
H5       H      0.768500000000     0.672900000000     0.644500000000     0          
C7       C      0.704500000000     0.640430000000     0.683530000000     0          
H6       H      0.635600000000     0.600200000000     0.712100000000     0          
C8       C      0.730200000000     0.664100000000     0.717270000000     0          
C9       C      0.730900000000     0.706030000000     0.717420000000     0          
H7       H      0.718200000000     0.720400000000     0.695100000000     0          
C10      C      0.750000000000     0.643240000000     0.750000000000     0          
C11      C      0.750000000000     0.727690000000     0.750000000000     0          
H8       H      0.750000000000     0.614500000000     0.750000000000     0          
O1       O      0.417900000000     0.460010000000     0.598940000000     0          
C1       C      0.370400000000     0.431310000000     0.589820000000     0          
O4       O      0.347700000000     0.422570000000     0.557090000000     0          
C2       C      0.341200000000     0.405960000000     0.622000000000     0          
C3       C      0.290900000000     0.373000000000     0.617240000000     0          
C4       C      0.370300000000     0.415770000000     0.657720000000     0          
H3       H      0.272200000000     0.366000000000     0.592900000000     0          
C5       C      0.267100000000     0.349640000000     0.647880000000     0          
C6       C      0.345900000000     0.392660000000     0.687810000000     0          
H4       H      0.406400000000     0.438100000000     0.661200000000     0          
H5       H      0.231500000000     0.327100000000     0.644500000000     0          
C7       C      0.295500000000     0.359570000000     0.683530000000     0          
H6       H      0.364400000000     0.399800000000     0.712100000000     0          
C8       C      0.269800000000     0.335900000000     0.717270000000     0          
C9       C      0.269100000000     0.293970000000     0.717420000000     0          
H7       H      0.281800000000     0.279600000000     0.695100000000     0          
C10      C      0.250000000000     0.356760000000     0.750000000000     0          
C11      C      0.250000000000     0.272310000000     0.750000000000     0          
H8       H      0.250000000000     0.385500000000     0.750000000000     0          
O1       O      0.582100000000     0.460010000000     0.401060000000     0          
C1       C      0.629600000000     0.431310000000     0.410180000000     0          
O4       O      0.652300000000     0.422570000000     0.442910000000     0          
C2       C      0.658800000000     0.405960000000     0.378000000000     0          
C3       C      0.709100000000     0.373000000000     0.382760000000     0          
C4       C      0.629700000000     0.415770000000     0.342280000000     0          
H3       H      0.727800000000     0.366000000000     0.407100000000     0          
C5       C      0.732900000000     0.349640000000     0.352120000000     0          
C6       C      0.654100000000     0.392660000000     0.312190000000     0          
H4       H      0.593600000000     0.438100000000     0.338800000000     0          
H5       H      0.768500000000     0.327100000000     0.355500000000     0          
C7       C      0.704500000000     0.359570000000     0.316470000000     0          
H6       H      0.635600000000     0.399800000000     0.287900000000     0          
C8       C      0.730200000000     0.335900000000     0.282730000000     0          
C9       C      0.730900000000     0.293970000000     0.282580000000     0          
H7       H      0.718200000000     0.279600000000     0.304900000000     0          
C10      C      0.750000000000     0.356760000000     0.250000000000     0          
C11      C      0.750000000000     0.272310000000     0.250000000000     0          
H8       H      0.750000000000     0.385500000000     0.250000000000     0          
O1       O      0.417900000000     0.539990000000     0.401060000000     0          
C1       C      0.370400000000     0.568690000000     0.410180000000     0          
O4       O      0.347700000000     0.577430000000     0.442910000000     0          
C2       C      0.341200000000     0.594040000000     0.378000000000     0          
C3       C      0.290900000000     0.627000000000     0.382760000000     0          
C4       C      0.370300000000     0.584230000000     0.342280000000     0          
H3       H      0.272200000000     0.634000000000     0.407100000000     0          
C5       C      0.267100000000     0.650360000000     0.352120000000     0          
C6       C      0.345900000000     0.607340000000     0.312190000000     0          
H4       H      0.406400000000     0.561900000000     0.338800000000     0          
H5       H      0.231500000000     0.672900000000     0.355500000000     0          
C7       C      0.295500000000     0.640430000000     0.316470000000     0          
H6       H      0.364400000000     0.600200000000     0.287900000000     0          
C8       C      0.269800000000     0.664100000000     0.282730000000     0          
C9       C      0.269100000000     0.706030000000     0.282580000000     0          
H7       H      0.281800000000     0.720400000000     0.304900000000     0          
C10      C      0.250000000000     0.643240000000     0.250000000000     0          
C11      C      0.250000000000     0.727690000000     0.250000000000     0          
H8       H      0.250000000000     0.614500000000     0.250000000000     0          
O1       O      0.417900000000     0.960010000000     0.901060000000     0          
C1       C      0.370400000000     0.931310000000     0.910180000000     0          
O4       O      0.347700000000     0.922570000000     0.942910000000     0          
C2       C      0.341200000000     0.905960000000     0.878000000000     0          
C3       C      0.290900000000     0.873000000000     0.882760000000     0          
C4       C      0.370300000000     0.915770000000     0.842280000000     0          
H3       H      0.272200000000     0.866000000000     0.907100000000     0          
C5       C      0.267100000000     0.849640000000     0.852120000000     0          
C6       C      0.345900000000     0.892660000000     0.812190000000     0          
H4       H      0.406400000000     0.938100000000     0.838800000000     0          
H5       H      0.231500000000     0.827100000000     0.855500000000     0          
C7       C      0.295500000000     0.859570000000     0.816470000000     0          
H6       H      0.364400000000     0.899800000000     0.787900000000     0          
C8       C      0.269800000000     0.835900000000     0.782730000000     0          
C9       C      0.269100000000     0.793970000000     0.782580000000     0          
H7       H      0.281800000000     0.779600000000     0.804900000000     0          
Zr1      Zr     0.500000000000     0.000000000000     0.931880000000     0          
O2       O      0.608100000000     0.000000000000     0.967270000000     0          
O3       O      0.500000000000     0.053530000000     0.966870000000     0          
Zr2      Zr     0.609530000000     0.053890000000     0.000000000000     0          
C10      C      0.250000000000     0.856760000000     0.750000000000     0          
C11      C      0.250000000000     0.772310000000     0.750000000000     0          
H8       H      0.250000000000     0.885500000000     0.750000000000     0          
O1       O      0.582100000000     0.039990000000     0.901060000000     0          
C1       C      0.629600000000     0.068690000000     0.910180000000     0          
O4       O      0.652300000000     0.077430000000     0.942910000000     0          
C2       C      0.658800000000     0.094040000000     0.878000000000     0          
C3       C      0.709100000000     0.127000000000     0.882760000000     0          
C4       C      0.629700000000     0.084230000000     0.842280000000     0          
H3       H      0.727800000000     0.134000000000     0.907100000000     0          
C5       C      0.732900000000     0.150360000000     0.852120000000     0          
C6       C      0.654100000000     0.107340000000     0.812190000000     0          
H4       H      0.593600000000     0.061900000000     0.838800000000     0          
H5       H      0.768500000000     0.172900000000     0.855500000000     0          
C7       C      0.704500000000     0.140430000000     0.816470000000     0          
H6       H      0.635600000000     0.100200000000     0.787900000000     0          
C8       C      0.730200000000     0.164100000000     0.782730000000     0          
C9       C      0.730900000000     0.206030000000     0.782580000000     0          
H7       H      0.718200000000     0.220400000000     0.804900000000     0          
O2       O      0.391900000000     0.000000000000     0.967270000000     0          
O3       O      0.500000000000     0.946470000000     0.966870000000     0          
Zr2      Zr     0.390470000000     0.946110000000     0.000000000000     0          
C10      C      0.750000000000     0.143240000000     0.750000000000     0          
C11      C      0.750000000000     0.227690000000     0.750000000000     0          
H8       H      0.750000000000     0.114500000000     0.750000000000     0          
O1       O      0.417900000000     0.039990000000     0.098940000000     0          
C1       C      0.370400000000     0.068690000000     0.089820000000     0          
O4       O      0.347700000000     0.077430000000     0.057090000000     0          
C2       C      0.341200000000     0.094040000000     0.122000000000     0          
C3       C      0.290900000000     0.127000000000     0.117240000000     0          
C4       C      0.370300000000     0.084230000000     0.157720000000     0          
H3       H      0.272200000000     0.134000000000     0.092900000000     0          
C5       C      0.267100000000     0.150360000000     0.147880000000     0          
C6       C      0.345900000000     0.107340000000     0.187810000000     0          
H4       H      0.406400000000     0.061900000000     0.161200000000     0          
H5       H      0.231500000000     0.172900000000     0.144500000000     0          
C7       C      0.295500000000     0.140430000000     0.183530000000     0          
H6       H      0.364400000000     0.100200000000     0.212100000000     0          
C8       C      0.269800000000     0.164100000000     0.217270000000     0          
C9       C      0.269100000000     0.206030000000     0.217420000000     0          
H7       H      0.281800000000     0.220400000000     0.195100000000     0          
Zr1      Zr     0.500000000000     0.000000000000     0.068120000000     0          
O2       O      0.608100000000     0.000000000000     0.032730000000     0          
O3       O      0.500000000000     0.946470000000     0.033130000000     0          
Zr2      Zr     0.609530000000     0.946110000000     0.000000000000     0          
C10      C      0.250000000000     0.143240000000     0.250000000000     0          
C11      C      0.250000000000     0.227690000000     0.250000000000     0          
H8       H      0.250000000000     0.114500000000     0.250000000000     0          
O1       O      0.582100000000     0.960010000000     0.098940000000     0          
C1       C      0.629600000000     0.931310000000     0.089820000000     0          
O4       O      0.652300000000     0.922570000000     0.057090000000     0          
C2       C      0.658800000000     0.905960000000     0.122000000000     0          
C3       C      0.709100000000     0.873000000000     0.117240000000     0          
C4       C      0.629700000000     0.915770000000     0.157720000000     0          
H3       H      0.727800000000     0.866000000000     0.092900000000     0          
C5       C      0.732900000000     0.849640000000     0.147880000000     0          
C6       C      0.654100000000     0.892660000000     0.187810000000     0          
H4       H      0.593600000000     0.938100000000     0.161200000000     0          
H5       H      0.768500000000     0.827100000000     0.144500000000     0          
C7       C      0.704500000000     0.859570000000     0.183530000000     0          
H6       H      0.635600000000     0.899800000000     0.212100000000     0          
C8       C      0.730200000000     0.835900000000     0.217270000000     0          
C9       C      0.730900000000     0.793970000000     0.217420000000     0          
H7       H      0.718200000000     0.779600000000     0.195100000000     0          
O2       O      0.391900000000     0.000000000000     0.032730000000     0          
O3       O      0.500000000000     0.053530000000     0.033130000000     0          
Zr2      Zr     0.390470000000     0.053890000000     0.000000000000     0          
C10      C      0.750000000000     0.856760000000     0.250000000000     0          
C11      C      0.750000000000     0.772310000000     0.250000000000     0          
H8       H      0.750000000000     0.885500000000     0.250000000000     0          
O1       O      0.582100000000     0.039990000000     0.098940000000     0          
C1       C      0.629600000000     0.068690000000     0.089820000000     0          
O4       O      0.652300000000     0.077430000000     0.057090000000     0          
C2       C      0.658800000000     0.094040000000     0.122000000000     0          
C3       C      0.709100000000     0.127000000000     0.117240000000     0          
C4       C      0.629700000000     0.084230000000     0.157720000000     0          
H3       H      0.727800000000     0.134000000000     0.092900000000     0          
C5       C      0.732900000000     0.150360000000     0.147880000000     0          
C6       C      0.654100000000     0.107340000000     0.187810000000     0          
H4       H      0.593600000000     0.061900000000     0.161200000000     0          
H5       H      0.768500000000     0.172900000000     0.144500000000     0          
C7       C      0.704500000000     0.140430000000     0.183530000000     0          
H6       H      0.635600000000     0.100200000000     0.212100000000     0          
C8       C      0.730200000000     0.164100000000     0.217270000000     0          
C9       C      0.730900000000     0.206030000000     0.217420000000     0          
H7       H      0.718200000000     0.220400000000     0.195100000000     0          
C10      C      0.750000000000     0.143240000000     0.250000000000     0          
C11      C      0.750000000000     0.227690000000     0.250000000000     0          
H8       H      0.750000000000     0.114500000000     0.250000000000     0          
O1       O      0.417900000000     0.960010000000     0.098940000000     0          
C1       C      0.370400000000     0.931310000000     0.089820000000     0          
O4       O      0.347700000000     0.922570000000     0.057090000000     0          
C2       C      0.341200000000     0.905960000000     0.122000000000     0          
C3       C      0.290900000000     0.873000000000     0.117240000000     0          
C4       C      0.370300000000     0.915770000000     0.157720000000     0          
H3       H      0.272200000000     0.866000000000     0.092900000000     0          
C5       C      0.267100000000     0.849640000000     0.147880000000     0          
C6       C      0.345900000000     0.892660000000     0.187810000000     0          
H4       H      0.406400000000     0.938100000000     0.161200000000     0          
H5       H      0.231500000000     0.827100000000     0.144500000000     0          
C7       C      0.295500000000     0.859570000000     0.183530000000     0          
H6       H      0.364400000000     0.899800000000     0.212100000000     0          
C8       C      0.269800000000     0.835900000000     0.217270000000     0          
C9       C      0.269100000000     0.793970000000     0.217420000000     0          
H7       H      0.281800000000     0.779600000000     0.195100000000     0          
C10      C      0.250000000000     0.856760000000     0.250000000000     0          
C11      C      0.250000000000     0.772310000000     0.250000000000     0          
H8       H      0.250000000000     0.885500000000     0.250000000000     0          
O1       O      0.582100000000     0.960010000000     0.901060000000     0          
C1       C      0.629600000000     0.931310000000     0.910180000000     0          
O4       O      0.652300000000     0.922570000000     0.942910000000     0          
C2       C      0.658800000000     0.905960000000     0.878000000000     0          
C3       C      0.709100000000     0.873000000000     0.882760000000     0          
C4       C      0.629700000000     0.915770000000     0.842280000000     0          
H3       H      0.727800000000     0.866000000000     0.907100000000     0          
C5       C      0.732900000000     0.849640000000     0.852120000000     0          
C6       C      0.654100000000     0.892660000000     0.812190000000     0          
H4       H      0.593600000000     0.938100000000     0.838800000000     0          
H5       H      0.768500000000     0.827100000000     0.855500000000     0          
C7       C      0.704500000000     0.859570000000     0.816470000000     0          
H6       H      0.635600000000     0.899800000000     0.787900000000     0          
C8       C      0.730200000000     0.835900000000     0.782730000000     0          
C9       C      0.730900000000     0.793970000000     0.782580000000     0          
H7       H      0.718200000000     0.779600000000     0.804900000000     0          
C10      C      0.750000000000     0.856760000000     0.750000000000     0          
C11      C      0.750000000000     0.772310000000     0.750000000000     0          
H8       H      0.750000000000     0.885500000000     0.750000000000     0          
O1       O      0.417900000000     0.039990000000     0.901060000000     0          
C1       C      0.370400000000     0.068690000000     0.910180000000     0          
O4       O      0.347700000000     0.077430000000     0.942910000000     0          
C2       C      0.341200000000     0.094040000000     0.878000000000     0          
C3       C      0.290900000000     0.127000000000     0.882760000000     0          
C4       C      0.370300000000     0.084230000000     0.842280000000     0          
H3       H      0.272200000000     0.134000000000     0.907100000000     0          
C5       C      0.267100000000     0.150360000000     0.852120000000     0          
C6       C      0.345900000000     0.107340000000     0.812190000000     0          
H4       H      0.406400000000     0.061900000000     0.838800000000     0          
H5       H      0.231500000000     0.172900000000     0.855500000000     0          
C7       C      0.295500000000     0.140430000000     0.816470000000     0          
H6       H      0.364400000000     0.100200000000     0.787900000000     0          
C8       C      0.269800000000     0.164100000000     0.782730000000     0          
C9       C      0.269100000000     0.206030000000     0.782580000000     0          
H7       H      0.281800000000     0.220400000000     0.804900000000     0          
C10      C      0.250000000000     0.143240000000     0.750000000000     0          
C11      C      0.250000000000     0.227690000000     0.750000000000     0          
H8       H      0.250000000000     0.114500000000     0.750000000000     0          
O1       O      0.917900000000     0.460010000000     0.901060000000     0          
C1       C      0.870400000000     0.431310000000     0.910180000000     0          
O4       O      0.847700000000     0.422570000000     0.942910000000     0          
C2       C      0.841200000000     0.405960000000     0.878000000000     0          
C3       C      0.790900000000     0.373000000000     0.882760000000     0          
C4       C      0.870300000000     0.415770000000     0.842280000000     0          
H3       H      0.772200000000     0.366000000000     0.907100000000     0          
C5       C      0.767100000000     0.349640000000     0.852120000000     0          
C6       C      0.845900000000     0.392660000000     0.812190000000     0          
H4       H      0.906400000000     0.438100000000     0.838800000000     0          
H5       H      0.731500000000     0.327100000000     0.855500000000     0          
C7       C      0.795500000000     0.359570000000     0.816470000000     0          
H6       H      0.864400000000     0.399800000000     0.787900000000     0          
C8       C      0.769800000000     0.335900000000     0.782730000000     0          
C9       C      0.769100000000     0.293970000000     0.782580000000     0          
H7       H      0.781800000000     0.279600000000     0.804900000000     0          
Zr1      Zr     0.000000000000     0.500000000000     0.931880000000     0          
O2       O      0.108100000000     0.500000000000     0.967270000000     0          
O3       O      0.000000000000     0.553530000000     0.966870000000     0          
Zr2      Zr     0.109530000000     0.553890000000     0.000000000000     0          
O1       O      0.082100000000     0.539990000000     0.901060000000     0          
C1       C      0.129600000000     0.568690000000     0.910180000000     0          
O4       O      0.152300000000     0.577430000000     0.942910000000     0          
C2       C      0.158800000000     0.594040000000     0.878000000000     0          
C3       C      0.209100000000     0.627000000000     0.882760000000     0          
C4       C      0.129700000000     0.584230000000     0.842280000000     0          
H3       H      0.227800000000     0.634000000000     0.907100000000     0          
C5       C      0.232900000000     0.650360000000     0.852120000000     0          
C6       C      0.154100000000     0.607340000000     0.812190000000     0          
H4       H      0.093600000000     0.561900000000     0.838800000000     0          
H5       H      0.268500000000     0.672900000000     0.855500000000     0          
C7       C      0.204500000000     0.640430000000     0.816470000000     0          
H6       H      0.135600000000     0.600200000000     0.787900000000     0          
C8       C      0.230200000000     0.664100000000     0.782730000000     0          
C9       C      0.230900000000     0.706030000000     0.782580000000     0          
H7       H      0.218200000000     0.720400000000     0.804900000000     0          
O2       O      0.891900000000     0.500000000000     0.967270000000     0          
O3       O      0.000000000000     0.446470000000     0.966870000000     0          
Zr2      Zr     0.890470000000     0.446110000000     0.000000000000     0          
O1       O      0.917900000000     0.539990000000     0.098940000000     0          
C1       C      0.870400000000     0.568690000000     0.089820000000     0          
O4       O      0.847700000000     0.577430000000     0.057090000000     0          
C2       C      0.841200000000     0.594040000000     0.122000000000     0          
C3       C      0.790900000000     0.627000000000     0.117240000000     0          
C4       C      0.870300000000     0.584230000000     0.157720000000     0          
H3       H      0.772200000000     0.634000000000     0.092900000000     0          
C5       C      0.767100000000     0.650360000000     0.147880000000     0          
C6       C      0.845900000000     0.607340000000     0.187810000000     0          
H4       H      0.906400000000     0.561900000000     0.161200000000     0          
H5       H      0.731500000000     0.672900000000     0.144500000000     0          
C7       C      0.795500000000     0.640430000000     0.183530000000     0          
H6       H      0.864400000000     0.600200000000     0.212100000000     0          
C8       C      0.769800000000     0.664100000000     0.217270000000     0          
C9       C      0.769100000000     0.706030000000     0.217420000000     0          
H7       H      0.781800000000     0.720400000000     0.195100000000     0          
Zr1      Zr     0.000000000000     0.500000000000     0.068120000000     0          
O2       O      0.108100000000     0.500000000000     0.032730000000     0          
O3       O      0.000000000000     0.446470000000     0.033130000000     0          
Zr2      Zr     0.109530000000     0.446110000000     0.000000000000     0          
O1       O      0.082100000000     0.460010000000     0.098940000000     0          
C1       C      0.129600000000     0.431310000000     0.089820000000     0          
O4       O      0.152300000000     0.422570000000     0.057090000000     0          
C2       C      0.158800000000     0.405960000000     0.122000000000     0          
C3       C      0.209100000000     0.373000000000     0.117240000000     0          
C4       C      0.129700000000     0.415770000000     0.157720000000     0          
H3       H      0.227800000000     0.366000000000     0.092900000000     0          
C5       C      0.232900000000     0.349640000000     0.147880000000     0          
C6       C      0.154100000000     0.392660000000     0.187810000000     0          
H4       H      0.093600000000     0.438100000000     0.161200000000     0          
H5       H      0.268500000000     0.327100000000     0.144500000000     0          
C7       C      0.204500000000     0.359570000000     0.183530000000     0          
H6       H      0.135600000000     0.399800000000     0.212100000000     0          
C8       C      0.230200000000     0.335900000000     0.217270000000     0          
C9       C      0.230900000000     0.293970000000     0.217420000000     0          
H7       H      0.218200000000     0.279600000000     0.195100000000     0          
O2       O      0.891900000000     0.500000000000     0.032730000000     0          
O3       O      0.000000000000     0.553530000000     0.033130000000     0          
Zr2      Zr     0.890470000000     0.553890000000     0.000000000000     0          
O1       O      0.082100000000     0.539990000000     0.098940000000     0          
C1       C      0.129600000000     0.568690000000     0.089820000000     0          
O4       O      0.152300000000     0.577430000000     0.057090000000     0          
C2       C      0.158800000000     0.594040000000     0.122000000000     0          
C3       C      0.209100000000     0.627000000000     0.117240000000     0          
C4       C      0.129700000000     0.584230000000     0.157720000000     0          
H3       H      0.227800000000     0.634000000000     0.092900000000     0          
C5       C      0.232900000000     0.650360000000     0.147880000000     0          
C6       C      0.154100000000     0.607340000000     0.187810000000     0          
H4       H      0.093600000000     0.561900000000     0.161200000000     0          
H5       H      0.268500000000     0.672900000000     0.144500000000     0          
C7       C      0.204500000000     0.640430000000     0.183530000000     0          
H6       H      0.135600000000     0.600200000000     0.212100000000     0          
C8       C      0.230200000000     0.664100000000     0.217270000000     0          
C9       C      0.230900000000     0.706030000000     0.217420000000     0          
H7       H      0.218200000000     0.720400000000     0.195100000000     0          
O1       O      0.917900000000     0.460010000000     0.098940000000     0          
C1       C      0.870400000000     0.431310000000     0.089820000000     0          
O4       O      0.847700000000     0.422570000000     0.057090000000     0          
C2       C      0.841200000000     0.405960000000     0.122000000000     0          
C3       C      0.790900000000     0.373000000000     0.117240000000     0          
C4       C      0.870300000000     0.415770000000     0.157720000000     0          
H3       H      0.772200000000     0.366000000000     0.092900000000     0          
C5       C      0.767100000000     0.349640000000     0.147880000000     0          
C6       C      0.845900000000     0.392660000000     0.187810000000     0          
H4       H      0.906400000000     0.438100000000     0.161200000000     0          
H5       H      0.731500000000     0.327100000000     0.144500000000     0          
C7       C      0.795500000000     0.359570000000     0.183530000000     0          
H6       H      0.864400000000     0.399800000000     0.212100000000     0          
C8       C      0.769800000000     0.335900000000     0.217270000000     0          
C9       C      0.769100000000     0.293970000000     0.217420000000     0          
H7       H      0.781800000000     0.279600000000     0.195100000000     0          
O1       O      0.082100000000     0.460010000000     0.901060000000     0          
C1       C      0.129600000000     0.431310000000     0.910180000000     0          
O4       O      0.152300000000     0.422570000000     0.942910000000     0          
C2       C      0.158800000000     0.405960000000     0.878000000000     0          
C3       C      0.209100000000     0.373000000000     0.882760000000     0          
C4       C      0.129700000000     0.415770000000     0.842280000000     0          
H3       H      0.227800000000     0.366000000000     0.907100000000     0          
C5       C      0.232900000000     0.349640000000     0.852120000000     0          
C6       C      0.154100000000     0.392660000000     0.812190000000     0          
H4       H      0.093600000000     0.438100000000     0.838800000000     0          
H5       H      0.268500000000     0.327100000000     0.855500000000     0          
C7       C      0.204500000000     0.359570000000     0.816470000000     0          
H6       H      0.135600000000     0.399800000000     0.787900000000     0          
C8       C      0.230200000000     0.335900000000     0.782730000000     0          
C9       C      0.230900000000     0.293970000000     0.782580000000     0          
H7       H      0.218200000000     0.279600000000     0.804900000000     0          
O1       O      0.917900000000     0.539990000000     0.901060000000     0          
C1       C      0.870400000000     0.568690000000     0.910180000000     0          
O4       O      0.847700000000     0.577430000000     0.942910000000     0          
C2       C      0.841200000000     0.594040000000     0.878000000000     0          
C3       C      0.790900000000     0.627000000000     0.882760000000     0          
C4       C      0.870300000000     0.584230000000     0.842280000000     0          
H3       H      0.772200000000     0.634000000000     0.907100000000     0          
C5       C      0.767100000000     0.650360000000     0.852120000000     0          
C6       C      0.845900000000     0.607340000000     0.812190000000     0          
H4       H      0.906400000000     0.561900000000     0.838800000000     0          
H5       H      0.731500000000     0.672900000000     0.855500000000     0          
C7       C      0.795500000000     0.640430000000     0.816470000000     0          
H6       H      0.864400000000     0.600200000000     0.787900000000     0          
C8       C      0.769800000000     0.664100000000     0.782730000000     0          
C9       C      0.769100000000     0.706030000000     0.782580000000     0          
H7       H      0.781800000000     0.720400000000     0.804900000000     0          
O1       O      0.917900000000     0.960010000000     0.401060000000     0          
C1       C      0.870400000000     0.931310000000     0.410180000000     0          
O4       O      0.847700000000     0.922570000000     0.442910000000     0          
C2       C      0.841200000000     0.905960000000     0.378000000000     0          
C3       C      0.790900000000     0.873000000000     0.382760000000     0          
C4       C      0.870300000000     0.915770000000     0.342280000000     0          
H3       H      0.772200000000     0.866000000000     0.407100000000     0          
C5       C      0.767100000000     0.849640000000     0.352120000000     0          
C6       C      0.845900000000     0.892660000000     0.312190000000     0          
H4       H      0.906400000000     0.938100000000     0.338800000000     0          
H5       H      0.731500000000     0.827100000000     0.355500000000     0          
C7       C      0.795500000000     0.859570000000     0.316470000000     0          
H6       H      0.864400000000     0.899800000000     0.287900000000     0          
C8       C      0.769800000000     0.835900000000     0.282730000000     0          
C9       C      0.769100000000     0.793970000000     0.282580000000     0          
H7       H      0.781800000000     0.779600000000     0.304900000000     0          
Zr1      Zr     0.000000000000     0.000000000000     0.431880000000     0          
O2       O      0.108100000000     0.000000000000     0.467270000000     0          
O3       O      0.000000000000     0.053530000000     0.466870000000     0          
Zr2      Zr     0.109530000000     0.053890000000     0.500000000000     0          
O1       O      0.082100000000     0.039990000000     0.401060000000     0          
C1       C      0.129600000000     0.068690000000     0.410180000000     0          
O4       O      0.152300000000     0.077430000000     0.442910000000     0          
C2       C      0.158800000000     0.094040000000     0.378000000000     0          
C3       C      0.209100000000     0.127000000000     0.382760000000     0          
C4       C      0.129700000000     0.084230000000     0.342280000000     0          
H3       H      0.227800000000     0.134000000000     0.407100000000     0          
C5       C      0.232900000000     0.150360000000     0.352120000000     0          
C6       C      0.154100000000     0.107340000000     0.312190000000     0          
H4       H      0.093600000000     0.061900000000     0.338800000000     0          
H5       H      0.268500000000     0.172900000000     0.355500000000     0          
C7       C      0.204500000000     0.140430000000     0.316470000000     0          
H6       H      0.135600000000     0.100200000000     0.287900000000     0          
C8       C      0.230200000000     0.164100000000     0.282730000000     0          
C9       C      0.230900000000     0.206030000000     0.282580000000     0          
H7       H      0.218200000000     0.220400000000     0.304900000000     0          
O2       O      0.891900000000     0.000000000000     0.467270000000     0          
O3       O      0.000000000000     0.946470000000     0.466870000000     0          
Zr2      Zr     0.890470000000     0.946110000000     0.500000000000     0          
O1       O      0.917900000000     0.039990000000     0.598940000000     0          
C1       C      0.870400000000     0.068690000000     0.589820000000     0          
O4       O      0.847700000000     0.077430000000     0.557090000000     0          
C2       C      0.841200000000     0.094040000000     0.622000000000     0          
C3       C      0.790900000000     0.127000000000     0.617240000000     0          
C4       C      0.870300000000     0.084230000000     0.657720000000     0          
H3       H      0.772200000000     0.134000000000     0.592900000000     0          
C5       C      0.767100000000     0.150360000000     0.647880000000     0          
C6       C      0.845900000000     0.107340000000     0.687810000000     0          
H4       H      0.906400000000     0.061900000000     0.661200000000     0          
H5       H      0.731500000000     0.172900000000     0.644500000000     0          
C7       C      0.795500000000     0.140430000000     0.683530000000     0          
H6       H      0.864400000000     0.100200000000     0.712100000000     0          
C8       C      0.769800000000     0.164100000000     0.717270000000     0          
C9       C      0.769100000000     0.206030000000     0.717420000000     0          
H7       H      0.781800000000     0.220400000000     0.695100000000     0          
Zr1      Zr     0.000000000000     0.000000000000     0.568120000000     0          
O2       O      0.108100000000     0.000000000000     0.532730000000     0          
O3       O      0.000000000000     0.946470000000     0.533130000000     0          
Zr2      Zr     0.109530000000     0.946110000000     0.500000000000     0          
O1       O      0.082100000000     0.960010000000     0.598940000000     0          
C1       C      0.129600000000     0.931310000000     0.589820000000     0          
O4       O      0.152300000000     0.922570000000     0.557090000000     0          
C2       C      0.158800000000     0.905960000000     0.622000000000     0          
C3       C      0.209100000000     0.873000000000     0.617240000000     0          
C4       C      0.129700000000     0.915770000000     0.657720000000     0          
H3       H      0.227800000000     0.866000000000     0.592900000000     0          
C5       C      0.232900000000     0.849640000000     0.647880000000     0          
C6       C      0.154100000000     0.892660000000     0.687810000000     0          
H4       H      0.093600000000     0.938100000000     0.661200000000     0          
H5       H      0.268500000000     0.827100000000     0.644500000000     0          
C7       C      0.204500000000     0.859570000000     0.683530000000     0          
H6       H      0.135600000000     0.899800000000     0.712100000000     0          
C8       C      0.230200000000     0.835900000000     0.717270000000     0          
C9       C      0.230900000000     0.793970000000     0.717420000000     0          
H7       H      0.218200000000     0.779600000000     0.695100000000     0          
O2       O      0.891900000000     0.000000000000     0.532730000000     0          
O3       O      0.000000000000     0.053530000000     0.533130000000     0          
Zr2      Zr     0.890470000000     0.053890000000     0.500000000000     0          
O1       O      0.082100000000     0.039990000000     0.598940000000     0          
C1       C      0.129600000000     0.068690000000     0.589820000000     0          
O4       O      0.152300000000     0.077430000000     0.557090000000     0          
C2       C      0.158800000000     0.094040000000     0.622000000000     0          
C3       C      0.209100000000     0.127000000000     0.617240000000     0          
C4       C      0.129700000000     0.084230000000     0.657720000000     0          
H3       H      0.227800000000     0.134000000000     0.592900000000     0          
C5       C      0.232900000000     0.150360000000     0.647880000000     0          
C6       C      0.154100000000     0.107340000000     0.687810000000     0          
H4       H      0.093600000000     0.061900000000     0.661200000000     0          
H5       H      0.268500000000     0.172900000000     0.644500000000     0          
C7       C      0.204500000000     0.140430000000     0.683530000000     0          
H6       H      0.135600000000     0.100200000000     0.712100000000     0          
C8       C      0.230200000000     0.164100000000     0.717270000000     0          
C9       C      0.230900000000     0.206030000000     0.717420000000     0          
H7       H      0.218200000000     0.220400000000     0.695100000000     0          
O1       O      0.917900000000     0.960010000000     0.598940000000     0          
C1       C      0.870400000000     0.931310000000     0.589820000000     0          
O4       O      0.847700000000     0.922570000000     0.557090000000     0          
C2       C      0.841200000000     0.905960000000     0.622000000000     0          
C3       C      0.790900000000     0.873000000000     0.617240000000     0          
C4       C      0.870300000000     0.915770000000     0.657720000000     0          
H3       H      0.772200000000     0.866000000000     0.592900000000     0          
C5       C      0.767100000000     0.849640000000     0.647880000000     0          
C6       C      0.845900000000     0.892660000000     0.687810000000     0          
H4       H      0.906400000000     0.938100000000     0.661200000000     0          
H5       H      0.731500000000     0.827100000000     0.644500000000     0          
C7       C      0.795500000000     0.859570000000     0.683530000000     0          
H6       H      0.864400000000     0.899800000000     0.712100000000     0          
C8       C      0.769800000000     0.835900000000     0.717270000000     0          
C9       C      0.769100000000     0.793970000000     0.717420000000     0          
H7       H      0.781800000000     0.779600000000     0.695100000000     0          
O1       O      0.082100000000     0.960010000000     0.401060000000     0          
C1       C      0.129600000000     0.931310000000     0.410180000000     0          
O4       O      0.152300000000     0.922570000000     0.442910000000     0          
C2       C      0.158800000000     0.905960000000     0.378000000000     0          
C3       C      0.209100000000     0.873000000000     0.382760000000     0          
C4       C      0.129700000000     0.915770000000     0.342280000000     0          
H3       H      0.227800000000     0.866000000000     0.407100000000     0          
C5       C      0.232900000000     0.849640000000     0.352120000000     0          
C6       C      0.154100000000     0.892660000000     0.312190000000     0          
H4       H      0.093600000000     0.938100000000     0.338800000000     0          
H5       H      0.268500000000     0.827100000000     0.355500000000     0          
C7       C      0.204500000000     0.859570000000     0.316470000000     0          
H6       H      0.135600000000     0.899800000000     0.287900000000     0          
C8       C      0.230200000000     0.835900000000     0.282730000000     0          
C9       C      0.230900000000     0.793970000000     0.282580000000     0          
H7       H      0.218200000000     0.779600000000     0.304900000000     0          
O1       O      0.917900000000     0.039990000000     0.401060000000     0          
C1       C      0.870400000000     0.068690000000     0.410180000000     0          
O4       O      0.847700000000     0.077430000000     0.442910000000     0          
C2       C      0.841200000000     0.094040000000     0.378000000000     0          
C3       C      0.790900000000     0.127000000000     0.382760000000     0          
C4       C      0.870300000000     0.084230000000     0.342280000000     0          
H3       H      0.772200000000     0.134000000000     0.407100000000     0          
C5       C      0.767100000000     0.150360000000     0.352120000000     0          
C6       C      0.845900000000     0.107340000000     0.312190000000     0          
H4       H      0.906400000000     0.061900000000     0.338800000000     0          
H5       H      0.731500000000     0.172900000000     0.355500000000     0          
C7       C      0.795500000000     0.140430000000     0.316470000000     0          
H6       H      0.864400000000     0.100200000000     0.287900000000     0          
C8       C      0.769800000000     0.164100000000     0.282730000000     0          
C9       C      0.769100000000     0.206030000000     0.282580000000     0          
H7       H      0.781800000000     0.220400000000     0.304900000000     0          


