data_EMIZAD

_audit_creation_method RASPA-1.0
_audit_creation_date 2020-11-2
_audit_author_name 'Rocio Bueno-Perez'

_cell_length_a    45.4548
_cell_length_b    45.4548
_cell_length_c    15.5951
_cell_angle_alpha 90
_cell_angle_beta  90
_cell_angle_gamma 120
_cell_volume      27904.8

_symmetry_cell_setting          hexagonal
_symmetry_space_group_name_Hall 'P 1'
_symmetry_space_group_name_H-M  'P 1'
_symmetry_Int_Tables_number     1

_symmetry_equiv_pos_as_xyz 'x,y,z'

loop_
_atom_site_label
_atom_site_type_symbol
_atom_site_fract_x
_atom_site_fract_y
_atom_site_fract_z
_atom_site_charge
O1       O      0.425250000000     0.515970000000     0.585330000000     0          
O2       O      0.419670000000     0.470710000000     0.658700000000     0          
C1       C      0.410930000000     0.492190000000     0.638800000000     0          
C2       C      0.380590000000     0.489610000000     0.686100000000     0          
C3       C      0.367650000000     0.510090000000     0.657200000000     0          
H3       H      0.377400000000     0.524400000000     0.608800000000     0          
C4       C      0.340250000000     0.509090000000     0.700600000000     0          
H4       H      0.331800000000     0.523600000000     0.683600000000     0          
C5       C      0.325330000000     0.486610000000     0.769100000000     0          
C6       C      0.338450000000     0.465930000000     0.794200000000     0          
H5       H      0.328300000000     0.450600000000     0.840700000000     0          
C7       C      0.366020000000     0.467490000000     0.752300000000     0          
H6       H      0.374700000000     0.453200000000     0.769600000000     0          
C8       C      0.296260000000     0.485270000000     0.815600000000     0          
C9       C      0.270140000000     0.486140000000     0.771500000000     0          
H7       H      0.270800000000     0.487400000000     0.710600000000     0          
C12      C      0.269730000000     0.484470000000     0.953300000000     0          
C13      C      0.295650000000     0.484560000000     0.906000000000     0          
H8       H      0.313700000000     0.484100000000     0.935700000000     0          
Zr1      Zr     0.468830000000     0.531170000000     0.500000000000     0          
Zr2      Zr     0.461050000000     0.461050000000     0.613410000000     0          
O3       O      0.523470000000     0.553990000000     0.500000000000     0          
O4       O      0.485090000000     0.514910000000     0.386700000000     0          
C10      C      0.242600000000     0.485200000000     0.816300000000     0          
C11      C      0.242400000000     0.484800000000     0.909000000000     0          
O1       O      0.909280000000     0.425250000000     0.585330000000     0          
O2       O      0.948960000000     0.419670000000     0.658700000000     0          
C1       C      0.918740000000     0.410930000000     0.638800000000     0          
C2       C      0.890980000000     0.380590000000     0.686100000000     0          
C3       C      0.857560000000     0.367650000000     0.657200000000     0          
H3       H      0.853000000000     0.377400000000     0.608800000000     0          
C4       C      0.831160000000     0.340250000000     0.700600000000     0          
H4       H      0.808200000000     0.331800000000     0.683600000000     0          
C5       C      0.838720000000     0.325330000000     0.769100000000     0          
C6       C      0.872520000000     0.338450000000     0.794200000000     0          
H5       H      0.877700000000     0.328300000000     0.840700000000     0          
C7       C      0.898530000000     0.366020000000     0.752300000000     0          
H6       H      0.921500000000     0.374700000000     0.769600000000     0          
C8       C      0.810990000000     0.296260000000     0.815600000000     0          
C9       C      0.784000000000     0.270140000000     0.771500000000     0          
H7       H      0.783400000000     0.270800000000     0.710600000000     0          
C12      C      0.785260000000     0.269730000000     0.953300000000     0          
C13      C      0.811090000000     0.295650000000     0.906000000000     0          
H8       H      0.829600000000     0.313700000000     0.935700000000     0          
Zr1      Zr     0.937660000000     0.468830000000     0.500000000000     0          
Zr2      Zr     0.000000000000     0.461050000000     0.613410000000     0          
O3       O      0.969480000000     0.523470000000     0.500000000000     0          
O4       O      0.970180000000     0.485090000000     0.386700000000     0          
C10      C      0.757400000000     0.242600000000     0.816300000000     0          
C11      C      0.757600000000     0.242400000000     0.909000000000     0          
O1       O      0.484030000000     0.909280000000     0.585330000000     0          
O2       O      0.529290000000     0.948960000000     0.658700000000     0          
C1       C      0.507810000000     0.918740000000     0.638800000000     0          
C2       C      0.510390000000     0.890980000000     0.686100000000     0          
C3       C      0.489910000000     0.857560000000     0.657200000000     0          
H3       H      0.475600000000     0.853000000000     0.608800000000     0          
C4       C      0.490910000000     0.831160000000     0.700600000000     0          
H4       H      0.476400000000     0.808200000000     0.683600000000     0          
C5       C      0.513390000000     0.838720000000     0.769100000000     0          
C6       C      0.534070000000     0.872520000000     0.794200000000     0          
H5       H      0.549400000000     0.877700000000     0.840700000000     0          
C7       C      0.532510000000     0.898530000000     0.752300000000     0          
H6       H      0.546800000000     0.921500000000     0.769600000000     0          
C8       C      0.514730000000     0.810990000000     0.815600000000     0          
C9       C      0.513860000000     0.784000000000     0.771500000000     0          
H7       H      0.512600000000     0.783400000000     0.710600000000     0          
C12      C      0.515530000000     0.785260000000     0.953300000000     0          
C13      C      0.515440000000     0.811090000000     0.906000000000     0          
H8       H      0.515900000000     0.829600000000     0.935700000000     0          
Zr1      Zr     0.468830000000     0.937660000000     0.500000000000     0          
Zr2      Zr     0.538950000000     0.000000000000     0.613410000000     0          
O3       O      0.446010000000     0.969480000000     0.500000000000     0          
O4       O      0.485090000000     0.970180000000     0.386700000000     0          
C10      C      0.514800000000     0.757400000000     0.816300000000     0          
C11      C      0.515200000000     0.757600000000     0.909000000000     0          
O1       O      0.574750000000     0.484030000000     0.585330000000     0          
O2       O      0.580330000000     0.529290000000     0.658700000000     0          
C1       C      0.589070000000     0.507810000000     0.638800000000     0          
C2       C      0.619410000000     0.510390000000     0.686100000000     0          
C3       C      0.632350000000     0.489910000000     0.657200000000     0          
H3       H      0.622600000000     0.475600000000     0.608800000000     0          
C4       C      0.659750000000     0.490910000000     0.700600000000     0          
H4       H      0.668200000000     0.476400000000     0.683600000000     0          
C5       C      0.674670000000     0.513390000000     0.769100000000     0          
C6       C      0.661550000000     0.534070000000     0.794200000000     0          
H5       H      0.671700000000     0.549400000000     0.840700000000     0          
C7       C      0.633980000000     0.532510000000     0.752300000000     0          
H6       H      0.625300000000     0.546800000000     0.769600000000     0          
C8       C      0.703740000000     0.514730000000     0.815600000000     0          
C9       C      0.729860000000     0.513860000000     0.771500000000     0          
H7       H      0.729200000000     0.512600000000     0.710600000000     0          
C12      C      0.730270000000     0.515530000000     0.953300000000     0          
C13      C      0.704350000000     0.515440000000     0.906000000000     0          
H8       H      0.686300000000     0.515900000000     0.935700000000     0          
Zr1      Zr     0.531170000000     0.468830000000     0.500000000000     0          
Zr2      Zr     0.538950000000     0.538950000000     0.613410000000     0          
O3       O      0.476530000000     0.446010000000     0.500000000000     0          
O4       O      0.514910000000     0.485090000000     0.386700000000     0          
C10      C      0.757400000000     0.514800000000     0.816300000000     0          
C11      C      0.757600000000     0.515200000000     0.909000000000     0          
O1       O      0.090720000000     0.574750000000     0.585330000000     0          
O2       O      0.051040000000     0.580330000000     0.658700000000     0          
C1       C      0.081260000000     0.589070000000     0.638800000000     0          
C2       C      0.109020000000     0.619410000000     0.686100000000     0          
C3       C      0.142440000000     0.632350000000     0.657200000000     0          
H3       H      0.147000000000     0.622600000000     0.608800000000     0          
C4       C      0.168840000000     0.659750000000     0.700600000000     0          
H4       H      0.191800000000     0.668200000000     0.683600000000     0          
C5       C      0.161280000000     0.674670000000     0.769100000000     0          
C6       C      0.127480000000     0.661550000000     0.794200000000     0          
H5       H      0.122300000000     0.671700000000     0.840700000000     0          
C7       C      0.101470000000     0.633980000000     0.752300000000     0          
H6       H      0.078500000000     0.625300000000     0.769600000000     0          
C8       C      0.189010000000     0.703740000000     0.815600000000     0          
C9       C      0.216000000000     0.729860000000     0.771500000000     0          
H7       H      0.216600000000     0.729200000000     0.710600000000     0          
C12      C      0.214740000000     0.730270000000     0.953300000000     0          
C13      C      0.188910000000     0.704350000000     0.906000000000     0          
H8       H      0.170400000000     0.686300000000     0.935700000000     0          
Zr1      Zr     0.062340000000     0.531170000000     0.500000000000     0          
Zr2      Zr     0.000000000000     0.538950000000     0.613410000000     0          
O3       O      0.030520000000     0.476530000000     0.500000000000     0          
O4       O      0.029820000000     0.514910000000     0.386700000000     0          
C10      C      0.242600000000     0.757400000000     0.816300000000     0          
C11      C      0.242400000000     0.757600000000     0.909000000000     0          
O1       O      0.515970000000     0.090720000000     0.585330000000     0          
O2       O      0.470710000000     0.051040000000     0.658700000000     0          
C1       C      0.492190000000     0.081260000000     0.638800000000     0          
C2       C      0.489610000000     0.109020000000     0.686100000000     0          
C3       C      0.510090000000     0.142440000000     0.657200000000     0          
H3       H      0.524400000000     0.147000000000     0.608800000000     0          
C4       C      0.509090000000     0.168840000000     0.700600000000     0          
H4       H      0.523600000000     0.191800000000     0.683600000000     0          
C5       C      0.486610000000     0.161280000000     0.769100000000     0          
C6       C      0.465930000000     0.127480000000     0.794200000000     0          
H5       H      0.450600000000     0.122300000000     0.840700000000     0          
C7       C      0.467490000000     0.101470000000     0.752300000000     0          
H6       H      0.453200000000     0.078500000000     0.769600000000     0          
C8       C      0.485270000000     0.189010000000     0.815600000000     0          
C9       C      0.486140000000     0.216000000000     0.771500000000     0          
H7       H      0.487400000000     0.216600000000     0.710600000000     0          
C12      C      0.484470000000     0.214740000000     0.953300000000     0          
C13      C      0.484560000000     0.188910000000     0.906000000000     0          
H8       H      0.484100000000     0.170400000000     0.935700000000     0          
Zr1      Zr     0.531170000000     0.062340000000     0.500000000000     0          
Zr2      Zr     0.461050000000     0.000000000000     0.613410000000     0          
O3       O      0.553990000000     0.030520000000     0.500000000000     0          
O4       O      0.514910000000     0.029820000000     0.386700000000     0          
C10      C      0.485200000000     0.242600000000     0.816300000000     0          
C11      C      0.484800000000     0.242400000000     0.909000000000     0          
O1       O      0.484030000000     0.574750000000     0.414670000000     0          
O2       O      0.529290000000     0.580330000000     0.341300000000     0          
C1       C      0.507810000000     0.589070000000     0.361200000000     0          
C2       C      0.510390000000     0.619410000000     0.313900000000     0          
C3       C      0.489910000000     0.632350000000     0.342800000000     0          
H3       H      0.475600000000     0.622600000000     0.391200000000     0          
C4       C      0.490910000000     0.659750000000     0.299400000000     0          
H4       H      0.476400000000     0.668200000000     0.316400000000     0          
C5       C      0.513390000000     0.674670000000     0.230900000000     0          
C6       C      0.534070000000     0.661550000000     0.205800000000     0          
H5       H      0.549400000000     0.671700000000     0.159300000000     0          
C7       C      0.532510000000     0.633980000000     0.247700000000     0          
H6       H      0.546800000000     0.625300000000     0.230400000000     0          
C8       C      0.514730000000     0.703740000000     0.184400000000     0          
C9       C      0.513860000000     0.729860000000     0.228500000000     0          
H7       H      0.512600000000     0.729200000000     0.289400000000     0          
C12      C      0.515530000000     0.730270000000     0.046700000000     0          
C13      C      0.515440000000     0.704350000000     0.094000000000     0          
H8       H      0.515900000000     0.686300000000     0.064300000000     0          
Zr2      Zr     0.538950000000     0.538950000000     0.386590000000     0          
O3       O      0.446010000000     0.476530000000     0.500000000000     0          
O4       O      0.485090000000     0.514910000000     0.613300000000     0          
C10      C      0.514800000000     0.757400000000     0.183700000000     0          
C11      C      0.515200000000     0.757600000000     0.091000000000     0          
O1       O      0.909280000000     0.484030000000     0.414670000000     0          
O2       O      0.948960000000     0.529290000000     0.341300000000     0          
C1       C      0.918740000000     0.507810000000     0.361200000000     0          
C2       C      0.890980000000     0.510390000000     0.313900000000     0          
C3       C      0.857560000000     0.489910000000     0.342800000000     0          
H3       H      0.853000000000     0.475600000000     0.391200000000     0          
C4       C      0.831160000000     0.490910000000     0.299400000000     0          
H4       H      0.808200000000     0.476400000000     0.316400000000     0          
C5       C      0.838720000000     0.513390000000     0.230900000000     0          
C6       C      0.872520000000     0.534070000000     0.205800000000     0          
H5       H      0.877700000000     0.549400000000     0.159300000000     0          
C7       C      0.898530000000     0.532510000000     0.247700000000     0          
H6       H      0.921500000000     0.546800000000     0.230400000000     0          
C8       C      0.810990000000     0.514730000000     0.184400000000     0          
C9       C      0.784000000000     0.513860000000     0.228500000000     0          
H7       H      0.783400000000     0.512600000000     0.289400000000     0          
C12      C      0.785260000000     0.515530000000     0.046700000000     0          
C13      C      0.811090000000     0.515440000000     0.094000000000     0          
H8       H      0.829600000000     0.515900000000     0.064300000000     0          
Zr2      Zr     0.000000000000     0.538950000000     0.386590000000     0          
O3       O      0.969480000000     0.446010000000     0.500000000000     0          
O4       O      0.970180000000     0.485090000000     0.613300000000     0          
C10      C      0.757400000000     0.514800000000     0.183700000000     0          
C11      C      0.757600000000     0.515200000000     0.091000000000     0          
O1       O      0.425250000000     0.909280000000     0.414670000000     0          
O2       O      0.419670000000     0.948960000000     0.341300000000     0          
C1       C      0.410930000000     0.918740000000     0.361200000000     0          
C2       C      0.380590000000     0.890980000000     0.313900000000     0          
C3       C      0.367650000000     0.857560000000     0.342800000000     0          
H3       H      0.377400000000     0.853000000000     0.391200000000     0          
C4       C      0.340250000000     0.831160000000     0.299400000000     0          
H4       H      0.331800000000     0.808200000000     0.316400000000     0          
C5       C      0.325330000000     0.838720000000     0.230900000000     0          
C6       C      0.338450000000     0.872520000000     0.205800000000     0          
H5       H      0.328300000000     0.877700000000     0.159300000000     0          
C7       C      0.366020000000     0.898530000000     0.247700000000     0          
H6       H      0.374700000000     0.921500000000     0.230400000000     0          
C8       C      0.296260000000     0.810990000000     0.184400000000     0          
C9       C      0.270140000000     0.784000000000     0.228500000000     0          
H7       H      0.270800000000     0.783400000000     0.289400000000     0          
C12      C      0.269730000000     0.785260000000     0.046700000000     0          
C13      C      0.295650000000     0.811090000000     0.094000000000     0          
H8       H      0.313700000000     0.829600000000     0.064300000000     0          
Zr2      Zr     0.461050000000     0.000000000000     0.386590000000     0          
O3       O      0.523470000000     0.969480000000     0.500000000000     0          
O4       O      0.485090000000     0.970180000000     0.613300000000     0          
C10      C      0.242600000000     0.757400000000     0.183700000000     0          
C11      C      0.242400000000     0.757600000000     0.091000000000     0          
O1       O      0.515970000000     0.425250000000     0.414670000000     0          
O2       O      0.470710000000     0.419670000000     0.341300000000     0          
C1       C      0.492190000000     0.410930000000     0.361200000000     0          
C2       C      0.489610000000     0.380590000000     0.313900000000     0          
C3       C      0.510090000000     0.367650000000     0.342800000000     0          
H3       H      0.524400000000     0.377400000000     0.391200000000     0          
C4       C      0.509090000000     0.340250000000     0.299400000000     0          
H4       H      0.523600000000     0.331800000000     0.316400000000     0          
C5       C      0.486610000000     0.325330000000     0.230900000000     0          
C6       C      0.465930000000     0.338450000000     0.205800000000     0          
H5       H      0.450600000000     0.328300000000     0.159300000000     0          
C7       C      0.467490000000     0.366020000000     0.247700000000     0          
H6       H      0.453200000000     0.374700000000     0.230400000000     0          
C8       C      0.485270000000     0.296260000000     0.184400000000     0          
C9       C      0.486140000000     0.270140000000     0.228500000000     0          
H7       H      0.487400000000     0.270800000000     0.289400000000     0          
C12      C      0.484470000000     0.269730000000     0.046700000000     0          
C13      C      0.484560000000     0.295650000000     0.094000000000     0          
H8       H      0.484100000000     0.313700000000     0.064300000000     0          
Zr2      Zr     0.461050000000     0.461050000000     0.386590000000     0          
O3       O      0.553990000000     0.523470000000     0.500000000000     0          
O4       O      0.514910000000     0.485090000000     0.613300000000     0          
C10      C      0.485200000000     0.242600000000     0.183700000000     0          
C11      C      0.484800000000     0.242400000000     0.091000000000     0          
O1       O      0.090720000000     0.515970000000     0.414670000000     0          
O2       O      0.051040000000     0.470710000000     0.341300000000     0          
C1       C      0.081260000000     0.492190000000     0.361200000000     0          
C2       C      0.109020000000     0.489610000000     0.313900000000     0          
C3       C      0.142440000000     0.510090000000     0.342800000000     0          
H3       H      0.147000000000     0.524400000000     0.391200000000     0          
C4       C      0.168840000000     0.509090000000     0.299400000000     0          
H4       H      0.191800000000     0.523600000000     0.316400000000     0          
C5       C      0.161280000000     0.486610000000     0.230900000000     0          
C6       C      0.127480000000     0.465930000000     0.205800000000     0          
H5       H      0.122300000000     0.450600000000     0.159300000000     0          
C7       C      0.101470000000     0.467490000000     0.247700000000     0          
H6       H      0.078500000000     0.453200000000     0.230400000000     0          
C8       C      0.189010000000     0.485270000000     0.184400000000     0          
C9       C      0.216000000000     0.486140000000     0.228500000000     0          
H7       H      0.216600000000     0.487400000000     0.289400000000     0          
C12      C      0.214740000000     0.484470000000     0.046700000000     0          
C13      C      0.188910000000     0.484560000000     0.094000000000     0          
H8       H      0.170400000000     0.484100000000     0.064300000000     0          
Zr2      Zr     0.000000000000     0.461050000000     0.386590000000     0          
O3       O      0.030520000000     0.553990000000     0.500000000000     0          
O4       O      0.029820000000     0.514910000000     0.613300000000     0          
C10      C      0.242600000000     0.485200000000     0.183700000000     0          
C11      C      0.242400000000     0.484800000000     0.091000000000     0          
O1       O      0.574750000000     0.090720000000     0.414670000000     0          
O2       O      0.580330000000     0.051040000000     0.341300000000     0          
C1       C      0.589070000000     0.081260000000     0.361200000000     0          
C2       C      0.619410000000     0.109020000000     0.313900000000     0          
C3       C      0.632350000000     0.142440000000     0.342800000000     0          
H3       H      0.622600000000     0.147000000000     0.391200000000     0          
C4       C      0.659750000000     0.168840000000     0.299400000000     0          
H4       H      0.668200000000     0.191800000000     0.316400000000     0          
C5       C      0.674670000000     0.161280000000     0.230900000000     0          
C6       C      0.661550000000     0.127480000000     0.205800000000     0          
H5       H      0.671700000000     0.122300000000     0.159300000000     0          
C7       C      0.633980000000     0.101470000000     0.247700000000     0          
H6       H      0.625300000000     0.078500000000     0.230400000000     0          
C8       C      0.703740000000     0.189010000000     0.184400000000     0          
C9       C      0.729860000000     0.216000000000     0.228500000000     0          
H7       H      0.729200000000     0.216600000000     0.289400000000     0          
C12      C      0.730270000000     0.214740000000     0.046700000000     0          
C13      C      0.704350000000     0.188910000000     0.094000000000     0          
H8       H      0.686300000000     0.170400000000     0.064300000000     0          
Zr2      Zr     0.538950000000     0.000000000000     0.386590000000     0          
O3       O      0.476530000000     0.030520000000     0.500000000000     0          
O4       O      0.514910000000     0.029820000000     0.613300000000     0          
C10      C      0.757400000000     0.242600000000     0.183700000000     0          
C11      C      0.757600000000     0.242400000000     0.091000000000     0          
O1       O      0.574750000000     0.484030000000     0.414670000000     0          
O2       O      0.580330000000     0.529290000000     0.341300000000     0          
C1       C      0.589070000000     0.507810000000     0.361200000000     0          
C2       C      0.619410000000     0.510390000000     0.313900000000     0          
C3       C      0.632350000000     0.489910000000     0.342800000000     0          
H3       H      0.622600000000     0.475600000000     0.391200000000     0          
C4       C      0.659750000000     0.490910000000     0.299400000000     0          
H4       H      0.668200000000     0.476400000000     0.316400000000     0          
C5       C      0.674670000000     0.513390000000     0.230900000000     0          
C6       C      0.661550000000     0.534070000000     0.205800000000     0          
H5       H      0.671700000000     0.549400000000     0.159300000000     0          
C7       C      0.633980000000     0.532510000000     0.247700000000     0          
H6       H      0.625300000000     0.546800000000     0.230400000000     0          
C8       C      0.703740000000     0.514730000000     0.184400000000     0          
C9       C      0.729860000000     0.513860000000     0.228500000000     0          
H7       H      0.729200000000     0.512600000000     0.289400000000     0          
C12      C      0.730270000000     0.515530000000     0.046700000000     0          
C13      C      0.704350000000     0.515440000000     0.094000000000     0          
H8       H      0.686300000000     0.515900000000     0.064300000000     0          
O1       O      0.090720000000     0.574750000000     0.414670000000     0          
O2       O      0.051040000000     0.580330000000     0.341300000000     0          
C1       C      0.081260000000     0.589070000000     0.361200000000     0          
C2       C      0.109020000000     0.619410000000     0.313900000000     0          
C3       C      0.142440000000     0.632350000000     0.342800000000     0          
H3       H      0.147000000000     0.622600000000     0.391200000000     0          
C4       C      0.168840000000     0.659750000000     0.299400000000     0          
H4       H      0.191800000000     0.668200000000     0.316400000000     0          
C5       C      0.161280000000     0.674670000000     0.230900000000     0          
C6       C      0.127480000000     0.661550000000     0.205800000000     0          
H5       H      0.122300000000     0.671700000000     0.159300000000     0          
C7       C      0.101470000000     0.633980000000     0.247700000000     0          
H6       H      0.078500000000     0.625300000000     0.230400000000     0          
C8       C      0.189010000000     0.703740000000     0.184400000000     0          
C9       C      0.216000000000     0.729860000000     0.228500000000     0          
H7       H      0.216600000000     0.729200000000     0.289400000000     0          
C12      C      0.214740000000     0.730270000000     0.046700000000     0          
C13      C      0.188910000000     0.704350000000     0.094000000000     0          
H8       H      0.170400000000     0.686300000000     0.064300000000     0          
O1       O      0.515970000000     0.090720000000     0.414670000000     0          
O2       O      0.470710000000     0.051040000000     0.341300000000     0          
C1       C      0.492190000000     0.081260000000     0.361200000000     0          
C2       C      0.489610000000     0.109020000000     0.313900000000     0          
C3       C      0.510090000000     0.142440000000     0.342800000000     0          
H3       H      0.524400000000     0.147000000000     0.391200000000     0          
C4       C      0.509090000000     0.168840000000     0.299400000000     0          
H4       H      0.523600000000     0.191800000000     0.316400000000     0          
C5       C      0.486610000000     0.161280000000     0.230900000000     0          
C6       C      0.465930000000     0.127480000000     0.205800000000     0          
H5       H      0.450600000000     0.122300000000     0.159300000000     0          
C7       C      0.467490000000     0.101470000000     0.247700000000     0          
H6       H      0.453200000000     0.078500000000     0.230400000000     0          
C8       C      0.485270000000     0.189010000000     0.184400000000     0          
C9       C      0.486140000000     0.216000000000     0.228500000000     0          
H7       H      0.487400000000     0.216600000000     0.289400000000     0          
C12      C      0.484470000000     0.214740000000     0.046700000000     0          
C13      C      0.484560000000     0.188910000000     0.094000000000     0          
H8       H      0.484100000000     0.170400000000     0.064300000000     0          
O1       O      0.425250000000     0.515970000000     0.414670000000     0          
O2       O      0.419670000000     0.470710000000     0.341300000000     0          
C1       C      0.410930000000     0.492190000000     0.361200000000     0          
C2       C      0.380590000000     0.489610000000     0.313900000000     0          
C3       C      0.367650000000     0.510090000000     0.342800000000     0          
H3       H      0.377400000000     0.524400000000     0.391200000000     0          
C4       C      0.340250000000     0.509090000000     0.299400000000     0          
H4       H      0.331800000000     0.523600000000     0.316400000000     0          
C5       C      0.325330000000     0.486610000000     0.230900000000     0          
C6       C      0.338450000000     0.465930000000     0.205800000000     0          
H5       H      0.328300000000     0.450600000000     0.159300000000     0          
C7       C      0.366020000000     0.467490000000     0.247700000000     0          
H6       H      0.374700000000     0.453200000000     0.230400000000     0          
C8       C      0.296260000000     0.485270000000     0.184400000000     0          
C9       C      0.270140000000     0.486140000000     0.228500000000     0          
H7       H      0.270800000000     0.487400000000     0.289400000000     0          
C12      C      0.269730000000     0.484470000000     0.046700000000     0          
C13      C      0.295650000000     0.484560000000     0.094000000000     0          
H8       H      0.313700000000     0.484100000000     0.064300000000     0          
O1       O      0.909280000000     0.425250000000     0.414670000000     0          
O2       O      0.948960000000     0.419670000000     0.341300000000     0          
C1       C      0.918740000000     0.410930000000     0.361200000000     0          
C2       C      0.890980000000     0.380590000000     0.313900000000     0          
C3       C      0.857560000000     0.367650000000     0.342800000000     0          
H3       H      0.853000000000     0.377400000000     0.391200000000     0          
C4       C      0.831160000000     0.340250000000     0.299400000000     0          
H4       H      0.808200000000     0.331800000000     0.316400000000     0          
C5       C      0.838720000000     0.325330000000     0.230900000000     0          
C6       C      0.872520000000     0.338450000000     0.205800000000     0          
H5       H      0.877700000000     0.328300000000     0.159300000000     0          
C7       C      0.898530000000     0.366020000000     0.247700000000     0          
H6       H      0.921500000000     0.374700000000     0.230400000000     0          
C8       C      0.810990000000     0.296260000000     0.184400000000     0          
C9       C      0.784000000000     0.270140000000     0.228500000000     0          
H7       H      0.783400000000     0.270800000000     0.289400000000     0          
C12      C      0.785260000000     0.269730000000     0.046700000000     0          
C13      C      0.811090000000     0.295650000000     0.094000000000     0          
H8       H      0.829600000000     0.313700000000     0.064300000000     0          
O1       O      0.484030000000     0.909280000000     0.414670000000     0          
O2       O      0.529290000000     0.948960000000     0.341300000000     0          
C1       C      0.507810000000     0.918740000000     0.361200000000     0          
C2       C      0.510390000000     0.890980000000     0.313900000000     0          
C3       C      0.489910000000     0.857560000000     0.342800000000     0          
H3       H      0.475600000000     0.853000000000     0.391200000000     0          
C4       C      0.490910000000     0.831160000000     0.299400000000     0          
H4       H      0.476400000000     0.808200000000     0.316400000000     0          
C5       C      0.513390000000     0.838720000000     0.230900000000     0          
C6       C      0.534070000000     0.872520000000     0.205800000000     0          
H5       H      0.549400000000     0.877700000000     0.159300000000     0          
C7       C      0.532510000000     0.898530000000     0.247700000000     0          
H6       H      0.546800000000     0.921500000000     0.230400000000     0          
C8       C      0.514730000000     0.810990000000     0.184400000000     0          
C9       C      0.513860000000     0.784000000000     0.228500000000     0          
H7       H      0.512600000000     0.783400000000     0.289400000000     0          
C12      C      0.515530000000     0.785260000000     0.046700000000     0          
C13      C      0.515440000000     0.811090000000     0.094000000000     0          
H8       H      0.515900000000     0.829600000000     0.064300000000     0          
O1       O      0.515970000000     0.425250000000     0.585330000000     0          
O2       O      0.470710000000     0.419670000000     0.658700000000     0          
C1       C      0.492190000000     0.410930000000     0.638800000000     0          
C2       C      0.489610000000     0.380590000000     0.686100000000     0          
C3       C      0.510090000000     0.367650000000     0.657200000000     0          
H3       H      0.524400000000     0.377400000000     0.608800000000     0          
C4       C      0.509090000000     0.340250000000     0.700600000000     0          
H4       H      0.523600000000     0.331800000000     0.683600000000     0          
C5       C      0.486610000000     0.325330000000     0.769100000000     0          
C6       C      0.465930000000     0.338450000000     0.794200000000     0          
H5       H      0.450600000000     0.328300000000     0.840700000000     0          
C7       C      0.467490000000     0.366020000000     0.752300000000     0          
H6       H      0.453200000000     0.374700000000     0.769600000000     0          
C8       C      0.485270000000     0.296260000000     0.815600000000     0          
C9       C      0.486140000000     0.270140000000     0.771500000000     0          
H7       H      0.487400000000     0.270800000000     0.710600000000     0          
C12      C      0.484470000000     0.269730000000     0.953300000000     0          
C13      C      0.484560000000     0.295650000000     0.906000000000     0          
H8       H      0.484100000000     0.313700000000     0.935700000000     0          
O1       O      0.090720000000     0.515970000000     0.585330000000     0          
O2       O      0.051040000000     0.470710000000     0.658700000000     0          
C1       C      0.081260000000     0.492190000000     0.638800000000     0          
C2       C      0.109020000000     0.489610000000     0.686100000000     0          
C3       C      0.142440000000     0.510090000000     0.657200000000     0          
H3       H      0.147000000000     0.524400000000     0.608800000000     0          
C4       C      0.168840000000     0.509090000000     0.700600000000     0          
H4       H      0.191800000000     0.523600000000     0.683600000000     0          
C5       C      0.161280000000     0.486610000000     0.769100000000     0          
C6       C      0.127480000000     0.465930000000     0.794200000000     0          
H5       H      0.122300000000     0.450600000000     0.840700000000     0          
C7       C      0.101470000000     0.467490000000     0.752300000000     0          
H6       H      0.078500000000     0.453200000000     0.769600000000     0          
C8       C      0.189010000000     0.485270000000     0.815600000000     0          
C9       C      0.216000000000     0.486140000000     0.771500000000     0          
H7       H      0.216600000000     0.487400000000     0.710600000000     0          
C12      C      0.214740000000     0.484470000000     0.953300000000     0          
C13      C      0.188910000000     0.484560000000     0.906000000000     0          
H8       H      0.170400000000     0.484100000000     0.935700000000     0          
O1       O      0.574750000000     0.090720000000     0.585330000000     0          
O2       O      0.580330000000     0.051040000000     0.658700000000     0          
C1       C      0.589070000000     0.081260000000     0.638800000000     0          
C2       C      0.619410000000     0.109020000000     0.686100000000     0          
C3       C      0.632350000000     0.142440000000     0.657200000000     0          
H3       H      0.622600000000     0.147000000000     0.608800000000     0          
C4       C      0.659750000000     0.168840000000     0.700600000000     0          
H4       H      0.668200000000     0.191800000000     0.683600000000     0          
C5       C      0.674670000000     0.161280000000     0.769100000000     0          
C6       C      0.661550000000     0.127480000000     0.794200000000     0          
H5       H      0.671700000000     0.122300000000     0.840700000000     0          
C7       C      0.633980000000     0.101470000000     0.752300000000     0          
H6       H      0.625300000000     0.078500000000     0.769600000000     0          
C8       C      0.703740000000     0.189010000000     0.815600000000     0          
C9       C      0.729860000000     0.216000000000     0.771500000000     0          
H7       H      0.729200000000     0.216600000000     0.710600000000     0          
C12      C      0.730270000000     0.214740000000     0.953300000000     0          
C13      C      0.704350000000     0.188910000000     0.906000000000     0          
H8       H      0.686300000000     0.170400000000     0.935700000000     0          
O1       O      0.484030000000     0.574750000000     0.585330000000     0          
O2       O      0.529290000000     0.580330000000     0.658700000000     0          
C1       C      0.507810000000     0.589070000000     0.638800000000     0          
C2       C      0.510390000000     0.619410000000     0.686100000000     0          
C3       C      0.489910000000     0.632350000000     0.657200000000     0          
H3       H      0.475600000000     0.622600000000     0.608800000000     0          
C4       C      0.490910000000     0.659750000000     0.700600000000     0          
H4       H      0.476400000000     0.668200000000     0.683600000000     0          
C5       C      0.513390000000     0.674670000000     0.769100000000     0          
C6       C      0.534070000000     0.661550000000     0.794200000000     0          
H5       H      0.549400000000     0.671700000000     0.840700000000     0          
C7       C      0.532510000000     0.633980000000     0.752300000000     0          
H6       H      0.546800000000     0.625300000000     0.769600000000     0          
C8       C      0.514730000000     0.703740000000     0.815600000000     0          
C9       C      0.513860000000     0.729860000000     0.771500000000     0          
H7       H      0.512600000000     0.729200000000     0.710600000000     0          
C12      C      0.515530000000     0.730270000000     0.953300000000     0          
C13      C      0.515440000000     0.704350000000     0.906000000000     0          
H8       H      0.515900000000     0.686300000000     0.935700000000     0          
O1       O      0.909280000000     0.484030000000     0.585330000000     0          
O2       O      0.948960000000     0.529290000000     0.658700000000     0          
C1       C      0.918740000000     0.507810000000     0.638800000000     0          
C2       C      0.890980000000     0.510390000000     0.686100000000     0          
C3       C      0.857560000000     0.489910000000     0.657200000000     0          
H3       H      0.853000000000     0.475600000000     0.608800000000     0          
C4       C      0.831160000000     0.490910000000     0.700600000000     0          
H4       H      0.808200000000     0.476400000000     0.683600000000     0          
C5       C      0.838720000000     0.513390000000     0.769100000000     0          
C6       C      0.872520000000     0.534070000000     0.794200000000     0          
H5       H      0.877700000000     0.549400000000     0.840700000000     0          
C7       C      0.898530000000     0.532510000000     0.752300000000     0          
H6       H      0.921500000000     0.546800000000     0.769600000000     0          
C8       C      0.810990000000     0.514730000000     0.815600000000     0          
C9       C      0.784000000000     0.513860000000     0.771500000000     0          
H7       H      0.783400000000     0.512600000000     0.710600000000     0          
C12      C      0.785260000000     0.515530000000     0.953300000000     0          
C13      C      0.811090000000     0.515440000000     0.906000000000     0          
H8       H      0.829600000000     0.515900000000     0.935700000000     0          
O1       O      0.425250000000     0.909280000000     0.585330000000     0          
O2       O      0.419670000000     0.948960000000     0.658700000000     0          
C1       C      0.410930000000     0.918740000000     0.638800000000     0          
C2       C      0.380590000000     0.890980000000     0.686100000000     0          
C3       C      0.367650000000     0.857560000000     0.657200000000     0          
H3       H      0.377400000000     0.853000000000     0.608800000000     0          
C4       C      0.340250000000     0.831160000000     0.700600000000     0          
H4       H      0.331800000000     0.808200000000     0.683600000000     0          
C5       C      0.325330000000     0.838720000000     0.769100000000     0          
C6       C      0.338450000000     0.872520000000     0.794200000000     0          
H5       H      0.328300000000     0.877700000000     0.840700000000     0          
C7       C      0.366020000000     0.898530000000     0.752300000000     0          
H6       H      0.374700000000     0.921500000000     0.769600000000     0          
C8       C      0.296260000000     0.810990000000     0.815600000000     0          
C9       C      0.270140000000     0.784000000000     0.771500000000     0          
H7       H      0.270800000000     0.783400000000     0.710600000000     0          
C12      C      0.269730000000     0.785260000000     0.953300000000     0          
C13      C      0.295650000000     0.811090000000     0.906000000000     0          
H8       H      0.313700000000     0.829600000000     0.935700000000     0          


