data_ENOWUB

_audit_creation_method RASPA-1.0
_audit_creation_date 2020-11-2
_audit_author_name 'Rocio Bueno-Perez'

_cell_length_a    29.941
_cell_length_b    29.941
_cell_length_c    29.941
_cell_angle_alpha 90
_cell_angle_beta  90
_cell_angle_gamma 90
_cell_volume      26841

_symmetry_cell_setting          triclinic
_symmetry_space_group_name_Hall 'P 1'
_symmetry_space_group_name_H-M  'P 1'
_symmetry_Int_Tables_number     1

_symmetry_equiv_pos_as_xyz 'x,y,z'

loop_
_atom_site_label
_atom_site_type_symbol
_atom_site_fract_x
_atom_site_fract_y
_atom_site_fract_z
_atom_site_charge
Zr1      Zr     0.082540000000     0.500000000000     0.000000000000     0          
Zr2      Zr     0.582540000000     0.500000000000     0.500000000000     0          
Zr3      Zr     0.917460000000     0.500000000000     0.000000000000     0          
Zr4      Zr     0.917460000000     0.000000000000     0.500000000000     0          
Zr5      Zr     0.417460000000     0.500000000000     0.500000000000     0          
Zr6      Zr     0.582540000000     0.000000000000     0.000000000000     0          
Zr7      Zr     0.000000000000     0.082540000000     0.500000000000     0          
Zr8      Zr     0.000000000000     0.582540000000     0.000000000000     0          
Zr9      Zr     0.500000000000     0.582540000000     0.500000000000     0          
Zr10     Zr     0.000000000000     0.917460000000     0.500000000000     0          
Zr11     Zr     0.000000000000     0.417460000000     0.000000000000     0          
Zr12     Zr     0.500000000000     0.082540000000     0.000000000000     0          
Zr13     Zr     0.500000000000     0.000000000000     0.082540000000     0          
Zr14     Zr     0.500000000000     0.500000000000     0.582540000000     0          
Zr15     Zr     0.500000000000     0.000000000000     0.917460000000     0          
Zr16     Zr     0.500000000000     0.500000000000     0.417460000000     0          
Zr17     Zr     0.000000000000     0.500000000000     0.917460000000     0          
Zr18     Zr     0.000000000000     0.000000000000     0.582540000000     0          
Zr19     Zr     0.500000000000     0.917460000000     0.000000000000     0          
Zr20     Zr     0.500000000000     0.417460000000     0.500000000000     0          
Zr21     Zr     0.082540000000     0.000000000000     0.500000000000     0          
Zr22     Zr     0.417460000000     0.000000000000     0.000000000000     0          
Zr23     Zr     0.000000000000     0.000000000000     0.417460000000     0          
Zr24     Zr     0.000000000000     0.500000000000     0.082540000000     0          
O25      O      0.119220000000     0.436050000000     0.000000000000     0          
C26      C      0.124900000000     0.313800000000     0.000000000000     0          
H27      H      0.094400000000     0.306300000000     0.000000000000     0          
C28      C      0.158300000000     0.280600000000     0.000000000000     0          
H29      H      0.150600000000     0.250100000000     0.000000000000     0          
C30      C      0.230500000000     0.249900000000     0.000000000000     0          
O31      O      0.119220000000     0.936050000000     0.500000000000     0          
C32      C      0.124900000000     0.813800000000     0.500000000000     0          
H33      H      0.094400000000     0.806300000000     0.500000000000     0          
C34      C      0.158300000000     0.780600000000     0.500000000000     0          
H35      H      0.150600000000     0.750100000000     0.500000000000     0          
C36      C      0.230500000000     0.749900000000     0.500000000000     0          
O37      O      0.619220000000     0.436050000000     0.500000000000     0          
C38      C      0.624900000000     0.313800000000     0.500000000000     0          
H39      H      0.594400000000     0.306300000000     0.500000000000     0          
C40      C      0.658300000000     0.280600000000     0.500000000000     0          
H41      H      0.650600000000     0.250100000000     0.500000000000     0          
C42      C      0.730500000000     0.249900000000     0.500000000000     0          
O43      O      0.619220000000     0.936050000000     0.000000000000     0          
C44      C      0.624900000000     0.813800000000     0.000000000000     0          
H45      H      0.594400000000     0.806300000000     0.000000000000     0          
C46      C      0.658300000000     0.780600000000     0.000000000000     0          
H47      H      0.650600000000     0.750100000000     0.000000000000     0          
C48      C      0.730500000000     0.749900000000     0.000000000000     0          
H49      H      0.713400000000     0.722800000000     0.000000000000     0          
O50      O      0.880780000000     0.563950000000     0.000000000000     0          
C51      C      0.875100000000     0.686200000000     0.000000000000     0          
H52      H      0.905600000000     0.693700000000     0.000000000000     0          
C53      C      0.841700000000     0.719400000000     0.000000000000     0          
H54      H      0.849400000000     0.749900000000     0.000000000000     0          
C55      C      0.769500000000     0.750100000000     0.000000000000     0          
H56      H      0.786600000000     0.777200000000     0.000000000000     0          
O57      O      0.880780000000     0.063950000000     0.500000000000     0          
C58      C      0.875100000000     0.186200000000     0.500000000000     0          
H59      H      0.905600000000     0.193700000000     0.500000000000     0          
C60      C      0.841700000000     0.219400000000     0.500000000000     0          
H61      H      0.849400000000     0.249900000000     0.500000000000     0          
C62      C      0.769500000000     0.250100000000     0.500000000000     0          
O63      O      0.380780000000     0.563950000000     0.500000000000     0          
C64      C      0.375100000000     0.686200000000     0.500000000000     0          
H65      H      0.405600000000     0.693700000000     0.500000000000     0          
C66      C      0.341700000000     0.719400000000     0.500000000000     0          
H67      H      0.349400000000     0.749900000000     0.500000000000     0          
C68      C      0.269500000000     0.750100000000     0.500000000000     0          
O69      O      0.380780000000     0.063950000000     0.000000000000     0          
C70      C      0.375100000000     0.186200000000     0.000000000000     0          
H71      H      0.405600000000     0.193700000000     0.000000000000     0          
C72      C      0.341700000000     0.219400000000     0.000000000000     0          
H73      H      0.349400000000     0.249900000000     0.000000000000     0          
C74      C      0.269500000000     0.250100000000     0.000000000000     0          
O75      O      0.880780000000     0.436050000000     0.000000000000     0          
C76      C      0.875100000000     0.313800000000     0.000000000000     0          
H77      H      0.905600000000     0.306300000000     0.000000000000     0          
C78      C      0.841700000000     0.280600000000     0.000000000000     0          
H79      H      0.849400000000     0.250100000000     0.000000000000     0          
C80      C      0.769500000000     0.249900000000     0.000000000000     0          
O81      O      0.880780000000     0.936050000000     0.500000000000     0          
C82      C      0.875100000000     0.813800000000     0.500000000000     0          
H83      H      0.905600000000     0.806300000000     0.500000000000     0          
C84      C      0.841700000000     0.780600000000     0.500000000000     0          
H85      H      0.849400000000     0.750100000000     0.500000000000     0          
C86      C      0.769500000000     0.749900000000     0.500000000000     0          
O87      O      0.380780000000     0.436050000000     0.500000000000     0          
C88      C      0.375100000000     0.313800000000     0.500000000000     0          
H89      H      0.405600000000     0.306300000000     0.500000000000     0          
C90      C      0.341700000000     0.280600000000     0.500000000000     0          
H91      H      0.349400000000     0.250100000000     0.500000000000     0          
C92      C      0.269500000000     0.249900000000     0.500000000000     0          
O93      O      0.380780000000     0.936050000000     0.000000000000     0          
C94      C      0.375100000000     0.813800000000     0.000000000000     0          
H95      H      0.405600000000     0.806300000000     0.000000000000     0          
C96      C      0.341700000000     0.780600000000     0.000000000000     0          
H97      H      0.349400000000     0.750100000000     0.000000000000     0          
C98      C      0.269500000000     0.749900000000     0.000000000000     0          
O99      O      0.119220000000     0.563950000000     0.000000000000     0          
C100     C      0.124900000000     0.686200000000     0.000000000000     0          
H101     H      0.094400000000     0.693700000000     0.000000000000     0          
C102     C      0.158300000000     0.719400000000     0.000000000000     0          
H103     H      0.150600000000     0.749900000000     0.000000000000     0          
C104     C      0.230500000000     0.750100000000     0.000000000000     0          
O105     O      0.119220000000     0.063950000000     0.500000000000     0          
C106     C      0.124900000000     0.186200000000     0.500000000000     0          
H107     H      0.094400000000     0.193700000000     0.500000000000     0          
C108     C      0.158300000000     0.219400000000     0.500000000000     0          
H109     H      0.150600000000     0.249900000000     0.500000000000     0          
C110     C      0.230500000000     0.250100000000     0.500000000000     0          
O111     O      0.619220000000     0.563950000000     0.500000000000     0          
C112     C      0.624900000000     0.686200000000     0.500000000000     0          
H113     H      0.594400000000     0.693700000000     0.500000000000     0          
C114     C      0.658300000000     0.719400000000     0.500000000000     0          
H115     H      0.650600000000     0.749900000000     0.500000000000     0          
C116     C      0.730500000000     0.750100000000     0.500000000000     0          
O117     O      0.619220000000     0.063950000000     0.000000000000     0          
C118     C      0.624900000000     0.186200000000     0.000000000000     0          
H119     H      0.594400000000     0.193700000000     0.000000000000     0          
C120     C      0.658300000000     0.219400000000     0.000000000000     0          
H121     H      0.650600000000     0.249900000000     0.000000000000     0          
C122     C      0.730500000000     0.250100000000     0.000000000000     0          
O123     O      0.000000000000     0.119220000000     0.436050000000     0          
C124     C      0.000000000000     0.124900000000     0.313800000000     0          
H125     H      0.000000000000     0.094400000000     0.306300000000     0          
C126     C      0.000000000000     0.158300000000     0.280600000000     0          
H127     H      0.000000000000     0.150600000000     0.250100000000     0          
H128     H      0.000000000000     0.213400000000     0.222800000000     0          
O129     O      0.000000000000     0.619220000000     0.936050000000     0          
C130     C      0.000000000000     0.624900000000     0.813800000000     0          
H131     H      0.000000000000     0.594400000000     0.806300000000     0          
C132     C      0.000000000000     0.658300000000     0.780600000000     0          
H133     H      0.000000000000     0.650600000000     0.750100000000     0          
H134     H      0.000000000000     0.713400000000     0.722800000000     0          
O135     O      0.500000000000     0.119220000000     0.936050000000     0          
C136     C      0.500000000000     0.124900000000     0.813800000000     0          
H137     H      0.500000000000     0.094400000000     0.806300000000     0          
C138     C      0.500000000000     0.158300000000     0.780600000000     0          
H139     H      0.500000000000     0.150600000000     0.750100000000     0          
H140     H      0.500000000000     0.213400000000     0.722800000000     0          
O141     O      0.500000000000     0.619220000000     0.436050000000     0          
C142     C      0.500000000000     0.624900000000     0.313800000000     0          
H143     H      0.500000000000     0.594400000000     0.306300000000     0          
C144     C      0.500000000000     0.658300000000     0.280600000000     0          
H145     H      0.500000000000     0.650600000000     0.250100000000     0          
H146     H      0.500000000000     0.713400000000     0.222800000000     0          
O147     O      0.000000000000     0.880780000000     0.563950000000     0          
C148     C      0.000000000000     0.875100000000     0.686200000000     0          
H149     H      0.000000000000     0.905600000000     0.693700000000     0          
C150     C      0.000000000000     0.841700000000     0.719400000000     0          
H151     H      0.000000000000     0.849400000000     0.749900000000     0          
H152     H      0.000000000000     0.786600000000     0.777200000000     0          
O153     O      0.000000000000     0.380780000000     0.063950000000     0          
C154     C      0.000000000000     0.375100000000     0.186200000000     0          
H155     H      0.000000000000     0.405600000000     0.193700000000     0          
C156     C      0.000000000000     0.341700000000     0.219400000000     0          
H157     H      0.000000000000     0.349400000000     0.249900000000     0          
H158     H      0.000000000000     0.286600000000     0.277200000000     0          
O159     O      0.500000000000     0.880780000000     0.063950000000     0          
C160     C      0.500000000000     0.875100000000     0.186200000000     0          
H161     H      0.500000000000     0.905600000000     0.193700000000     0          
C162     C      0.500000000000     0.841700000000     0.219400000000     0          
H163     H      0.500000000000     0.849400000000     0.249900000000     0          
H164     H      0.500000000000     0.786600000000     0.277200000000     0          
O165     O      0.500000000000     0.380780000000     0.563950000000     0          
C166     C      0.500000000000     0.375100000000     0.686200000000     0          
H167     H      0.500000000000     0.405600000000     0.693700000000     0          
C168     C      0.500000000000     0.341700000000     0.719400000000     0          
H169     H      0.500000000000     0.349400000000     0.749900000000     0          
H170     H      0.500000000000     0.286600000000     0.777200000000     0          
O171     O      0.000000000000     0.880780000000     0.436050000000     0          
C172     C      0.000000000000     0.875100000000     0.313800000000     0          
H173     H      0.000000000000     0.905600000000     0.306300000000     0          
C174     C      0.000000000000     0.841700000000     0.280600000000     0          
H175     H      0.000000000000     0.849400000000     0.250100000000     0          
H176     H      0.000000000000     0.786600000000     0.222800000000     0          
O177     O      0.000000000000     0.380780000000     0.936050000000     0          
C178     C      0.000000000000     0.375100000000     0.813800000000     0          
H179     H      0.000000000000     0.405600000000     0.806300000000     0          
C180     C      0.000000000000     0.341700000000     0.780600000000     0          
H181     H      0.000000000000     0.349400000000     0.750100000000     0          
H182     H      0.000000000000     0.286600000000     0.722800000000     0          
O183     O      0.500000000000     0.880780000000     0.936050000000     0          
C184     C      0.500000000000     0.875100000000     0.813800000000     0          
H185     H      0.500000000000     0.905600000000     0.806300000000     0          
C186     C      0.500000000000     0.841700000000     0.780600000000     0          
H187     H      0.500000000000     0.849400000000     0.750100000000     0          
H188     H      0.500000000000     0.786600000000     0.722800000000     0          
O189     O      0.500000000000     0.380780000000     0.436050000000     0          
C190     C      0.500000000000     0.375100000000     0.313800000000     0          
H191     H      0.500000000000     0.405600000000     0.306300000000     0          
C192     C      0.500000000000     0.341700000000     0.280600000000     0          
H193     H      0.500000000000     0.349400000000     0.250100000000     0          
H194     H      0.500000000000     0.286600000000     0.222800000000     0          
O195     O      0.000000000000     0.119220000000     0.563950000000     0          
C196     C      0.000000000000     0.124900000000     0.686200000000     0          
H197     H      0.000000000000     0.094400000000     0.693700000000     0          
C198     C      0.000000000000     0.158300000000     0.719400000000     0          
H199     H      0.000000000000     0.150600000000     0.749900000000     0          
H200     H      0.000000000000     0.213400000000     0.777200000000     0          
O201     O      0.000000000000     0.619220000000     0.063950000000     0          
C202     C      0.000000000000     0.624900000000     0.186200000000     0          
H203     H      0.000000000000     0.594400000000     0.193700000000     0          
C204     C      0.000000000000     0.658300000000     0.219400000000     0          
H205     H      0.000000000000     0.650600000000     0.249900000000     0          
H206     H      0.000000000000     0.713400000000     0.277200000000     0          
O207     O      0.500000000000     0.119220000000     0.063950000000     0          
C208     C      0.500000000000     0.124900000000     0.186200000000     0          
H209     H      0.500000000000     0.094400000000     0.193700000000     0          
C210     C      0.500000000000     0.158300000000     0.219400000000     0          
H211     H      0.500000000000     0.150600000000     0.249900000000     0          
H212     H      0.500000000000     0.213400000000     0.277200000000     0          
O213     O      0.500000000000     0.619220000000     0.563950000000     0          
C214     C      0.500000000000     0.624900000000     0.686200000000     0          
H215     H      0.500000000000     0.594400000000     0.693700000000     0          
C216     C      0.500000000000     0.658300000000     0.719400000000     0          
H217     H      0.500000000000     0.650600000000     0.749900000000     0          
H218     H      0.500000000000     0.713400000000     0.777200000000     0          
O219     O      0.436050000000     0.000000000000     0.119220000000     0          
C220     C      0.313800000000     0.000000000000     0.124900000000     0          
H221     H      0.306300000000     0.000000000000     0.094400000000     0          
C222     C      0.280600000000     0.000000000000     0.158300000000     0          
H223     H      0.250100000000     0.000000000000     0.150600000000     0          
H224     H      0.222800000000     0.000000000000     0.213400000000     0          
O225     O      0.436050000000     0.500000000000     0.619220000000     0          
C226     C      0.313800000000     0.500000000000     0.624900000000     0          
H227     H      0.306300000000     0.500000000000     0.594400000000     0          
C228     C      0.280600000000     0.500000000000     0.658300000000     0          
H229     H      0.250100000000     0.500000000000     0.650600000000     0          
H230     H      0.222800000000     0.500000000000     0.713400000000     0          
O231     O      0.936050000000     0.000000000000     0.619220000000     0          
C232     C      0.813800000000     0.000000000000     0.624900000000     0          
H233     H      0.806300000000     0.000000000000     0.594400000000     0          
C234     C      0.780600000000     0.000000000000     0.658300000000     0          
H235     H      0.750100000000     0.000000000000     0.650600000000     0          
H236     H      0.722800000000     0.000000000000     0.713400000000     0          
O237     O      0.936050000000     0.500000000000     0.119220000000     0          
C238     C      0.813800000000     0.500000000000     0.124900000000     0          
H239     H      0.806300000000     0.500000000000     0.094400000000     0          
C240     C      0.780600000000     0.500000000000     0.158300000000     0          
H241     H      0.750100000000     0.500000000000     0.150600000000     0          
H242     H      0.722800000000     0.500000000000     0.213400000000     0          
O243     O      0.563950000000     0.000000000000     0.880780000000     0          
C244     C      0.686200000000     0.000000000000     0.875100000000     0          
H245     H      0.693700000000     0.000000000000     0.905600000000     0          
C246     C      0.719400000000     0.000000000000     0.841700000000     0          
H247     H      0.749900000000     0.000000000000     0.849400000000     0          
H248     H      0.777200000000     0.000000000000     0.786600000000     0          
O249     O      0.563950000000     0.500000000000     0.380780000000     0          
C250     C      0.686200000000     0.500000000000     0.375100000000     0          
H251     H      0.693700000000     0.500000000000     0.405600000000     0          
C252     C      0.719400000000     0.500000000000     0.341700000000     0          
H253     H      0.749900000000     0.500000000000     0.349400000000     0          
H254     H      0.777200000000     0.500000000000     0.286600000000     0          
O255     O      0.063950000000     0.000000000000     0.380780000000     0          
C256     C      0.186200000000     0.000000000000     0.375100000000     0          
H257     H      0.193700000000     0.000000000000     0.405600000000     0          
C258     C      0.219400000000     0.000000000000     0.341700000000     0          
H259     H      0.249900000000     0.000000000000     0.349400000000     0          
H260     H      0.277200000000     0.000000000000     0.286600000000     0          
O261     O      0.063950000000     0.500000000000     0.880780000000     0          
C262     C      0.186200000000     0.500000000000     0.875100000000     0          
H263     H      0.193700000000     0.500000000000     0.905600000000     0          
C264     C      0.219400000000     0.500000000000     0.841700000000     0          
H265     H      0.249900000000     0.500000000000     0.849400000000     0          
H266     H      0.277200000000     0.500000000000     0.786600000000     0          
O267     O      0.436050000000     0.000000000000     0.880780000000     0          
C268     C      0.313800000000     0.000000000000     0.875100000000     0          
H269     H      0.306300000000     0.000000000000     0.905600000000     0          
C270     C      0.280600000000     0.000000000000     0.841700000000     0          
H271     H      0.250100000000     0.000000000000     0.849400000000     0          
H272     H      0.222800000000     0.000000000000     0.786600000000     0          
O273     O      0.436050000000     0.500000000000     0.380780000000     0          
C274     C      0.313800000000     0.500000000000     0.375100000000     0          
H275     H      0.306300000000     0.500000000000     0.405600000000     0          
C276     C      0.280600000000     0.500000000000     0.341700000000     0          
H277     H      0.250100000000     0.500000000000     0.349400000000     0          
H278     H      0.222800000000     0.500000000000     0.286600000000     0          
O279     O      0.936050000000     0.000000000000     0.380780000000     0          
C280     C      0.813800000000     0.000000000000     0.375100000000     0          
H281     H      0.806300000000     0.000000000000     0.405600000000     0          
C282     C      0.780600000000     0.000000000000     0.341700000000     0          
H283     H      0.750100000000     0.000000000000     0.349400000000     0          
H284     H      0.722800000000     0.000000000000     0.286600000000     0          
O285     O      0.936050000000     0.500000000000     0.880780000000     0          
C286     C      0.813800000000     0.500000000000     0.875100000000     0          
H287     H      0.806300000000     0.500000000000     0.905600000000     0          
C288     C      0.780600000000     0.500000000000     0.841700000000     0          
H289     H      0.750100000000     0.500000000000     0.849400000000     0          
H290     H      0.722800000000     0.500000000000     0.786600000000     0          
O291     O      0.563950000000     0.000000000000     0.119220000000     0          
C292     C      0.686200000000     0.000000000000     0.124900000000     0          
H293     H      0.693700000000     0.000000000000     0.094400000000     0          
C294     C      0.719400000000     0.000000000000     0.158300000000     0          
H295     H      0.749900000000     0.000000000000     0.150600000000     0          
H296     H      0.777200000000     0.000000000000     0.213400000000     0          
O297     O      0.563950000000     0.500000000000     0.619220000000     0          
C298     C      0.686200000000     0.500000000000     0.624900000000     0          
H299     H      0.693700000000     0.500000000000     0.594400000000     0          
C300     C      0.719400000000     0.500000000000     0.658300000000     0          
H301     H      0.749900000000     0.500000000000     0.650600000000     0          
H302     H      0.777200000000     0.500000000000     0.713400000000     0          
O303     O      0.063950000000     0.000000000000     0.619220000000     0          
C304     C      0.186200000000     0.000000000000     0.624900000000     0          
H305     H      0.193700000000     0.000000000000     0.594400000000     0          
C306     C      0.219400000000     0.000000000000     0.658300000000     0          
H307     H      0.249900000000     0.000000000000     0.650600000000     0          
H308     H      0.277200000000     0.000000000000     0.713400000000     0          
O309     O      0.063950000000     0.500000000000     0.119220000000     0          
C310     C      0.186200000000     0.500000000000     0.124900000000     0          
H311     H      0.193700000000     0.500000000000     0.094400000000     0          
C312     C      0.219400000000     0.500000000000     0.158300000000     0          
H313     H      0.249900000000     0.500000000000     0.150600000000     0          
H314     H      0.277200000000     0.500000000000     0.213400000000     0          
O315     O      0.436050000000     0.119220000000     0.000000000000     0          
C316     C      0.313800000000     0.124900000000     0.000000000000     0          
H317     H      0.306300000000     0.094400000000     0.000000000000     0          
C318     C      0.280600000000     0.158300000000     0.000000000000     0          
H319     H      0.250100000000     0.150600000000     0.000000000000     0          
H320     H      0.222800000000     0.213400000000     0.000000000000     0          
O321     O      0.436050000000     0.619220000000     0.500000000000     0          
C322     C      0.313800000000     0.624900000000     0.500000000000     0          
H323     H      0.306300000000     0.594400000000     0.500000000000     0          
C324     C      0.280600000000     0.658300000000     0.500000000000     0          
H325     H      0.250100000000     0.650600000000     0.500000000000     0          
H326     H      0.222800000000     0.713400000000     0.500000000000     0          
O327     O      0.936050000000     0.119220000000     0.500000000000     0          
C328     C      0.813800000000     0.124900000000     0.500000000000     0          
H329     H      0.806300000000     0.094400000000     0.500000000000     0          
C330     C      0.780600000000     0.158300000000     0.500000000000     0          
H331     H      0.750100000000     0.150600000000     0.500000000000     0          
H332     H      0.722800000000     0.213400000000     0.500000000000     0          
O333     O      0.936050000000     0.619220000000     0.000000000000     0          
C334     C      0.813800000000     0.624900000000     0.000000000000     0          
H335     H      0.806300000000     0.594400000000     0.000000000000     0          
C336     C      0.780600000000     0.658300000000     0.000000000000     0          
H337     H      0.750100000000     0.650600000000     0.000000000000     0          
O338     O      0.563950000000     0.880780000000     0.000000000000     0          
C339     C      0.686200000000     0.875100000000     0.000000000000     0          
H340     H      0.693700000000     0.905600000000     0.000000000000     0          
C341     C      0.719400000000     0.841700000000     0.000000000000     0          
H342     H      0.749900000000     0.849400000000     0.000000000000     0          
O343     O      0.563950000000     0.380780000000     0.500000000000     0          
C344     C      0.686200000000     0.375100000000     0.500000000000     0          
H345     H      0.693700000000     0.405600000000     0.500000000000     0          
C346     C      0.719400000000     0.341700000000     0.500000000000     0          
H347     H      0.749900000000     0.349400000000     0.500000000000     0          
H348     H      0.777200000000     0.286600000000     0.500000000000     0          
O349     O      0.063950000000     0.880780000000     0.500000000000     0          
C350     C      0.186200000000     0.875100000000     0.500000000000     0          
H351     H      0.193700000000     0.905600000000     0.500000000000     0          
C352     C      0.219400000000     0.841700000000     0.500000000000     0          
H353     H      0.249900000000     0.849400000000     0.500000000000     0          
H354     H      0.277200000000     0.786600000000     0.500000000000     0          
O355     O      0.063950000000     0.380780000000     0.000000000000     0          
C356     C      0.186200000000     0.375100000000     0.000000000000     0          
H357     H      0.193700000000     0.405600000000     0.000000000000     0          
C358     C      0.219400000000     0.341700000000     0.000000000000     0          
H359     H      0.249900000000     0.349400000000     0.000000000000     0          
H360     H      0.277200000000     0.286600000000     0.000000000000     0          
O361     O      0.436050000000     0.880780000000     0.000000000000     0          
C362     C      0.313800000000     0.875100000000     0.000000000000     0          
H363     H      0.306300000000     0.905600000000     0.000000000000     0          
C364     C      0.280600000000     0.841700000000     0.000000000000     0          
H365     H      0.250100000000     0.849400000000     0.000000000000     0          
H366     H      0.222800000000     0.786600000000     0.000000000000     0          
O367     O      0.436050000000     0.380780000000     0.500000000000     0          
C368     C      0.313800000000     0.375100000000     0.500000000000     0          
H369     H      0.306300000000     0.405600000000     0.500000000000     0          
C370     C      0.280600000000     0.341700000000     0.500000000000     0          
H371     H      0.250100000000     0.349400000000     0.500000000000     0          
H372     H      0.222800000000     0.286600000000     0.500000000000     0          
O373     O      0.936050000000     0.880780000000     0.500000000000     0          
C374     C      0.813800000000     0.875100000000     0.500000000000     0          
H375     H      0.806300000000     0.905600000000     0.500000000000     0          
C376     C      0.780600000000     0.841700000000     0.500000000000     0          
H377     H      0.750100000000     0.849400000000     0.500000000000     0          
H378     H      0.722800000000     0.786600000000     0.500000000000     0          
O379     O      0.936050000000     0.380780000000     0.000000000000     0          
C380     C      0.813800000000     0.375100000000     0.000000000000     0          
H381     H      0.806300000000     0.405600000000     0.000000000000     0          
C382     C      0.780600000000     0.341700000000     0.000000000000     0          
H383     H      0.750100000000     0.349400000000     0.000000000000     0          
H384     H      0.722800000000     0.286600000000     0.000000000000     0          
O385     O      0.563950000000     0.119220000000     0.000000000000     0          
C386     C      0.686200000000     0.124900000000     0.000000000000     0          
H387     H      0.693700000000     0.094400000000     0.000000000000     0          
C388     C      0.719400000000     0.158300000000     0.000000000000     0          
H389     H      0.749900000000     0.150600000000     0.000000000000     0          
H390     H      0.777200000000     0.213400000000     0.000000000000     0          
O391     O      0.563950000000     0.619220000000     0.500000000000     0          
C392     C      0.686200000000     0.624900000000     0.500000000000     0          
H393     H      0.693700000000     0.594400000000     0.500000000000     0          
C394     C      0.719400000000     0.658300000000     0.500000000000     0          
H395     H      0.749900000000     0.650600000000     0.500000000000     0          
H396     H      0.777200000000     0.713400000000     0.500000000000     0          
O397     O      0.063950000000     0.119220000000     0.500000000000     0          
C398     C      0.186200000000     0.124900000000     0.500000000000     0          
H399     H      0.193700000000     0.094400000000     0.500000000000     0          
C400     C      0.219400000000     0.158300000000     0.500000000000     0          
H401     H      0.249900000000     0.150600000000     0.500000000000     0          
H402     H      0.277200000000     0.213400000000     0.500000000000     0          
O403     O      0.063950000000     0.619220000000     0.000000000000     0          
C404     C      0.186200000000     0.624900000000     0.000000000000     0          
H405     H      0.193700000000     0.594400000000     0.000000000000     0          
C406     C      0.219400000000     0.658300000000     0.000000000000     0          
H407     H      0.249900000000     0.650600000000     0.000000000000     0          
H408     H      0.277200000000     0.713400000000     0.000000000000     0          
O409     O      0.119220000000     0.000000000000     0.563950000000     0          
C410     C      0.124900000000     0.000000000000     0.686200000000     0          
H411     H      0.094400000000     0.000000000000     0.693700000000     0          
C412     C      0.158300000000     0.000000000000     0.719400000000     0          
H413     H      0.150600000000     0.000000000000     0.749900000000     0          
C414     C      0.230500000000     0.000000000000     0.750100000000     0          
O415     O      0.119220000000     0.500000000000     0.063950000000     0          
C416     C      0.124900000000     0.500000000000     0.186200000000     0          
H417     H      0.094400000000     0.500000000000     0.193700000000     0          
C418     C      0.158300000000     0.500000000000     0.219400000000     0          
H419     H      0.150600000000     0.500000000000     0.249900000000     0          
C420     C      0.230500000000     0.500000000000     0.250100000000     0          
O421     O      0.619220000000     0.000000000000     0.063950000000     0          
C422     C      0.624900000000     0.000000000000     0.186200000000     0          
H423     H      0.594400000000     0.000000000000     0.193700000000     0          
C424     C      0.658300000000     0.000000000000     0.219400000000     0          
H425     H      0.650600000000     0.000000000000     0.249900000000     0          
C426     C      0.730500000000     0.000000000000     0.250100000000     0          
O427     O      0.619220000000     0.500000000000     0.563950000000     0          
C428     C      0.624900000000     0.500000000000     0.686200000000     0          
H429     H      0.594400000000     0.500000000000     0.693700000000     0          
C430     C      0.658300000000     0.500000000000     0.719400000000     0          
H431     H      0.650600000000     0.500000000000     0.749900000000     0          
C432     C      0.730500000000     0.500000000000     0.750100000000     0          
O433     O      0.880780000000     0.000000000000     0.436050000000     0          
C434     C      0.875100000000     0.000000000000     0.313800000000     0          
H435     H      0.905600000000     0.000000000000     0.306300000000     0          
C436     C      0.841700000000     0.000000000000     0.280600000000     0          
H437     H      0.849400000000     0.000000000000     0.250100000000     0          
C438     C      0.769500000000     0.000000000000     0.249900000000     0          
O439     O      0.880780000000     0.500000000000     0.936050000000     0          
C440     C      0.875100000000     0.500000000000     0.813800000000     0          
H441     H      0.905600000000     0.500000000000     0.806300000000     0          
C442     C      0.841700000000     0.500000000000     0.780600000000     0          
H443     H      0.849400000000     0.500000000000     0.750100000000     0          
C444     C      0.769500000000     0.500000000000     0.749900000000     0          
O445     O      0.380780000000     0.000000000000     0.936050000000     0          
C446     C      0.375100000000     0.000000000000     0.813800000000     0          
H447     H      0.405600000000     0.000000000000     0.806300000000     0          
C448     C      0.341700000000     0.000000000000     0.780600000000     0          
H449     H      0.349400000000     0.000000000000     0.750100000000     0          
C450     C      0.269500000000     0.000000000000     0.749900000000     0          
O451     O      0.380780000000     0.500000000000     0.436050000000     0          
C452     C      0.375100000000     0.500000000000     0.313800000000     0          
H453     H      0.405600000000     0.500000000000     0.306300000000     0          
C454     C      0.341700000000     0.500000000000     0.280600000000     0          
H455     H      0.349400000000     0.500000000000     0.250100000000     0          
C456     C      0.269500000000     0.500000000000     0.249900000000     0          
O457     O      0.880780000000     0.000000000000     0.563950000000     0          
C458     C      0.875100000000     0.000000000000     0.686200000000     0          
H459     H      0.905600000000     0.000000000000     0.693700000000     0          
C460     C      0.841700000000     0.000000000000     0.719400000000     0          
H461     H      0.849400000000     0.000000000000     0.749900000000     0          
C462     C      0.769500000000     0.000000000000     0.750100000000     0          
O463     O      0.880780000000     0.500000000000     0.063950000000     0          
C464     C      0.875100000000     0.500000000000     0.186200000000     0          
H465     H      0.905600000000     0.500000000000     0.193700000000     0          
C466     C      0.841700000000     0.500000000000     0.219400000000     0          
H467     H      0.849400000000     0.500000000000     0.249900000000     0          
C468     C      0.769500000000     0.500000000000     0.250100000000     0          
O469     O      0.380780000000     0.000000000000     0.063950000000     0          
C470     C      0.375100000000     0.000000000000     0.186200000000     0          
H471     H      0.405600000000     0.000000000000     0.193700000000     0          
C472     C      0.341700000000     0.000000000000     0.219400000000     0          
H473     H      0.349400000000     0.000000000000     0.249900000000     0          
C474     C      0.269500000000     0.000000000000     0.250100000000     0          
O475     O      0.380780000000     0.500000000000     0.563950000000     0          
C476     C      0.375100000000     0.500000000000     0.686200000000     0          
H477     H      0.405600000000     0.500000000000     0.693700000000     0          
C478     C      0.341700000000     0.500000000000     0.719400000000     0          
H479     H      0.349400000000     0.500000000000     0.749900000000     0          
C480     C      0.269500000000     0.500000000000     0.750100000000     0          
O481     O      0.119220000000     0.000000000000     0.436050000000     0          
C482     C      0.124900000000     0.000000000000     0.313800000000     0          
H483     H      0.094400000000     0.000000000000     0.306300000000     0          
C484     C      0.158300000000     0.000000000000     0.280600000000     0          
H485     H      0.150600000000     0.000000000000     0.250100000000     0          
C486     C      0.230500000000     0.000000000000     0.249900000000     0          
O487     O      0.119220000000     0.500000000000     0.936050000000     0          
C488     C      0.124900000000     0.500000000000     0.813800000000     0          
H489     H      0.094400000000     0.500000000000     0.806300000000     0          
C490     C      0.158300000000     0.500000000000     0.780600000000     0          
H491     H      0.150600000000     0.500000000000     0.750100000000     0          
C492     C      0.230500000000     0.500000000000     0.749900000000     0          
O493     O      0.619220000000     0.000000000000     0.936050000000     0          
C494     C      0.624900000000     0.000000000000     0.813800000000     0          
H495     H      0.594400000000     0.000000000000     0.806300000000     0          
C496     C      0.658300000000     0.000000000000     0.780600000000     0          
H497     H      0.650600000000     0.000000000000     0.750100000000     0          
C498     C      0.730500000000     0.000000000000     0.749900000000     0          
O499     O      0.619220000000     0.500000000000     0.436050000000     0          
C500     C      0.624900000000     0.500000000000     0.313800000000     0          
H501     H      0.594400000000     0.500000000000     0.306300000000     0          
C502     C      0.658300000000     0.500000000000     0.280600000000     0          
H503     H      0.650600000000     0.500000000000     0.250100000000     0          
C504     C      0.730500000000     0.500000000000     0.249900000000     0          
O505     O      0.000000000000     0.436050000000     0.880780000000     0          
C506     C      0.000000000000     0.313800000000     0.875100000000     0          
H507     H      0.000000000000     0.306300000000     0.905600000000     0          
C508     C      0.000000000000     0.280600000000     0.841700000000     0          
H509     H      0.000000000000     0.250100000000     0.849400000000     0          
C510     C      0.000000000000     0.249900000000     0.769500000000     0          
O511     O      0.000000000000     0.936050000000     0.380780000000     0          
C512     C      0.000000000000     0.813800000000     0.375100000000     0          
H513     H      0.000000000000     0.806300000000     0.405600000000     0          
C514     C      0.000000000000     0.780600000000     0.341700000000     0          
H515     H      0.000000000000     0.750100000000     0.349400000000     0          
C516     C      0.000000000000     0.749900000000     0.269500000000     0          
O517     O      0.500000000000     0.436050000000     0.380780000000     0          
C518     C      0.500000000000     0.313800000000     0.375100000000     0          
H519     H      0.500000000000     0.306300000000     0.405600000000     0          
C520     C      0.500000000000     0.280600000000     0.341700000000     0          
H521     H      0.500000000000     0.250100000000     0.349400000000     0          
C522     C      0.500000000000     0.249900000000     0.269500000000     0          
O523     O      0.500000000000     0.936050000000     0.880780000000     0          
C524     C      0.500000000000     0.813800000000     0.875100000000     0          
H525     H      0.500000000000     0.806300000000     0.905600000000     0          
C526     C      0.500000000000     0.780600000000     0.841700000000     0          
H527     H      0.500000000000     0.750100000000     0.849400000000     0          
C528     C      0.500000000000     0.749900000000     0.769500000000     0          
O529     O      0.000000000000     0.563950000000     0.119220000000     0          
C530     C      0.000000000000     0.686200000000     0.124900000000     0          
H531     H      0.000000000000     0.693700000000     0.094400000000     0          
C532     C      0.000000000000     0.719400000000     0.158300000000     0          
H533     H      0.000000000000     0.749900000000     0.150600000000     0          
C534     C      0.000000000000     0.750100000000     0.230500000000     0          
O535     O      0.000000000000     0.063950000000     0.619220000000     0          
C536     C      0.000000000000     0.186200000000     0.624900000000     0          
H537     H      0.000000000000     0.193700000000     0.594400000000     0          
C538     C      0.000000000000     0.219400000000     0.658300000000     0          
H539     H      0.000000000000     0.249900000000     0.650600000000     0          
C540     C      0.000000000000     0.250100000000     0.730500000000     0          
O541     O      0.500000000000     0.563950000000     0.619220000000     0          
C542     C      0.500000000000     0.686200000000     0.624900000000     0          
H543     H      0.500000000000     0.693700000000     0.594400000000     0          
C544     C      0.500000000000     0.719400000000     0.658300000000     0          
H545     H      0.500000000000     0.749900000000     0.650600000000     0          
C546     C      0.500000000000     0.750100000000     0.730500000000     0          
O547     O      0.500000000000     0.063950000000     0.119220000000     0          
C548     C      0.500000000000     0.186200000000     0.124900000000     0          
H549     H      0.500000000000     0.193700000000     0.094400000000     0          
C550     C      0.500000000000     0.219400000000     0.158300000000     0          
H551     H      0.500000000000     0.249900000000     0.150600000000     0          
C552     C      0.500000000000     0.250100000000     0.230500000000     0          
O553     O      0.000000000000     0.436050000000     0.119220000000     0          
C554     C      0.000000000000     0.313800000000     0.124900000000     0          
H555     H      0.000000000000     0.306300000000     0.094400000000     0          
C556     C      0.000000000000     0.280600000000     0.158300000000     0          
H557     H      0.000000000000     0.250100000000     0.150600000000     0          
C558     C      0.000000000000     0.249900000000     0.230500000000     0          
O559     O      0.000000000000     0.936050000000     0.619220000000     0          
C560     C      0.000000000000     0.813800000000     0.624900000000     0          
H561     H      0.000000000000     0.806300000000     0.594400000000     0          
C562     C      0.000000000000     0.780600000000     0.658300000000     0          
H563     H      0.000000000000     0.750100000000     0.650600000000     0          
C564     C      0.000000000000     0.749900000000     0.730500000000     0          
O565     O      0.500000000000     0.436050000000     0.619220000000     0          
C566     C      0.500000000000     0.313800000000     0.624900000000     0          
H567     H      0.500000000000     0.306300000000     0.594400000000     0          
C568     C      0.500000000000     0.280600000000     0.658300000000     0          
H569     H      0.500000000000     0.250100000000     0.650600000000     0          
C570     C      0.500000000000     0.249900000000     0.730500000000     0          
O571     O      0.500000000000     0.936050000000     0.119220000000     0          
C572     C      0.500000000000     0.813800000000     0.124900000000     0          
H573     H      0.500000000000     0.806300000000     0.094400000000     0          
C574     C      0.500000000000     0.780600000000     0.158300000000     0          
H575     H      0.500000000000     0.750100000000     0.150600000000     0          
C576     C      0.500000000000     0.749900000000     0.230500000000     0          
O577     O      0.000000000000     0.563950000000     0.880780000000     0          
C578     C      0.000000000000     0.686200000000     0.875100000000     0          
H579     H      0.000000000000     0.693700000000     0.905600000000     0          
C580     C      0.000000000000     0.719400000000     0.841700000000     0          
H581     H      0.000000000000     0.749900000000     0.849400000000     0          
C582     C      0.000000000000     0.750100000000     0.769500000000     0          
O583     O      0.000000000000     0.063950000000     0.380780000000     0          
C584     C      0.000000000000     0.186200000000     0.375100000000     0          
H585     H      0.000000000000     0.193700000000     0.405600000000     0          
C586     C      0.000000000000     0.219400000000     0.341700000000     0          
H587     H      0.000000000000     0.249900000000     0.349400000000     0          
C588     C      0.000000000000     0.250100000000     0.269500000000     0          
O589     O      0.500000000000     0.563950000000     0.380780000000     0          
C590     C      0.500000000000     0.686200000000     0.375100000000     0          
H591     H      0.500000000000     0.693700000000     0.405600000000     0          
C592     C      0.500000000000     0.719400000000     0.341700000000     0          
H593     H      0.500000000000     0.749900000000     0.349400000000     0          
C594     C      0.500000000000     0.750100000000     0.269500000000     0          
O595     O      0.500000000000     0.063950000000     0.880780000000     0          
C596     C      0.500000000000     0.186200000000     0.875100000000     0          
H597     H      0.500000000000     0.193700000000     0.905600000000     0          
C598     C      0.500000000000     0.219400000000     0.841700000000     0          
H599     H      0.500000000000     0.249900000000     0.849400000000     0          
C600     C      0.500000000000     0.250100000000     0.769500000000     0          
O601     O      0.040860000000     0.459140000000     0.040860000000     0          
O602     O      0.959140000000     0.540860000000     0.040860000000     0          
O603     O      0.459140000000     0.040860000000     0.040860000000     0          
O604     O      0.959140000000     0.459140000000     0.959140000000     0          
O605     O      0.459140000000     0.459140000000     0.459140000000     0          
O606     O      0.040860000000     0.540860000000     0.959140000000     0          
O607     O      0.040860000000     0.040860000000     0.459140000000     0          
O608     O      0.040860000000     0.959140000000     0.540860000000     0          
O609     O      0.959140000000     0.959140000000     0.459140000000     0          
O610     O      0.959140000000     0.040860000000     0.540860000000     0          
O611     O      0.459140000000     0.540860000000     0.540860000000     0          
O612     O      0.540860000000     0.040860000000     0.959140000000     0          
O613     O      0.540860000000     0.540860000000     0.459140000000     0          
O614     O      0.459140000000     0.959140000000     0.959140000000     0          
O615     O      0.540860000000     0.959140000000     0.040860000000     0          
O616     O      0.540860000000     0.459140000000     0.540860000000     0          
O617     O      0.459140000000     0.040860000000     0.959140000000     0          
O618     O      0.459140000000     0.540860000000     0.459140000000     0          
O619     O      0.540860000000     0.959140000000     0.959140000000     0          
O620     O      0.540860000000     0.459140000000     0.459140000000     0          
O621     O      0.040860000000     0.959140000000     0.459140000000     0          
O622     O      0.040860000000     0.459140000000     0.959140000000     0          
O623     O      0.459140000000     0.959140000000     0.040860000000     0          
O624     O      0.459140000000     0.459140000000     0.540860000000     0          
O625     O      0.540860000000     0.040860000000     0.040860000000     0          
O626     O      0.540860000000     0.540860000000     0.540860000000     0          
O627     O      0.040860000000     0.040860000000     0.540860000000     0          
O628     O      0.959140000000     0.040860000000     0.459140000000     0          
O629     O      0.959140000000     0.959140000000     0.540860000000     0          
O630     O      0.959140000000     0.459140000000     0.040860000000     0          
O631     O      0.040860000000     0.540860000000     0.040860000000     0          
O632     O      0.959140000000     0.540860000000     0.959140000000     0          
C633     C      0.104710000000     0.395290000000     0.000000000000     0          
C634     C      0.139500000000     0.360500000000     0.000000000000     0          
C635     C      0.205600000000     0.294400000000     0.000000000000     0          
C636     C      0.104710000000     0.895290000000     0.500000000000     0          
C637     C      0.139500000000     0.860500000000     0.500000000000     0          
C638     C      0.205600000000     0.794400000000     0.500000000000     0          
C639     C      0.895290000000     0.604710000000     0.000000000000     0          
C640     C      0.860500000000     0.639500000000     0.000000000000     0          
C641     C      0.794400000000     0.705600000000     0.000000000000     0          
C642     C      0.895290000000     0.104710000000     0.500000000000     0          
C643     C      0.860500000000     0.139500000000     0.500000000000     0          
C644     C      0.794400000000     0.205600000000     0.500000000000     0          
C645     C      0.395290000000     0.104710000000     0.000000000000     0          
C646     C      0.360500000000     0.139500000000     0.000000000000     0          
C647     C      0.294400000000     0.205600000000     0.000000000000     0          
C648     C      0.895290000000     0.395290000000     0.000000000000     0          
C649     C      0.860500000000     0.360500000000     0.000000000000     0          
C650     C      0.794400000000     0.294400000000     0.000000000000     0          
C651     C      0.895290000000     0.895290000000     0.500000000000     0          
C652     C      0.860500000000     0.860500000000     0.500000000000     0          
C653     C      0.794400000000     0.794400000000     0.500000000000     0          
C654     C      0.395290000000     0.395290000000     0.500000000000     0          
C655     C      0.360500000000     0.360500000000     0.500000000000     0          
C656     C      0.294400000000     0.294400000000     0.500000000000     0          
C657     C      0.104710000000     0.604710000000     0.000000000000     0          
C658     C      0.139500000000     0.639500000000     0.000000000000     0          
C659     C      0.205600000000     0.705600000000     0.000000000000     0          
C660     C      0.104710000000     0.104710000000     0.500000000000     0          
C661     C      0.139500000000     0.139500000000     0.500000000000     0          
C662     C      0.205600000000     0.205600000000     0.500000000000     0          
C663     C      0.000000000000     0.104710000000     0.395290000000     0          
C664     C      0.000000000000     0.139500000000     0.360500000000     0          
C665     C      0.000000000000     0.205600000000     0.294400000000     0          
C666     C      0.500000000000     0.104710000000     0.895290000000     0          
C667     C      0.500000000000     0.139500000000     0.860500000000     0          
C668     C      0.500000000000     0.205600000000     0.794400000000     0          
C669     C      0.000000000000     0.895290000000     0.604710000000     0          
C670     C      0.000000000000     0.860500000000     0.639500000000     0          
C671     C      0.000000000000     0.794400000000     0.705600000000     0          
C672     C      0.000000000000     0.395290000000     0.104710000000     0          
C673     C      0.000000000000     0.360500000000     0.139500000000     0          
C674     C      0.000000000000     0.294400000000     0.205600000000     0          
C675     C      0.500000000000     0.895290000000     0.104710000000     0          
C676     C      0.500000000000     0.860500000000     0.139500000000     0          
C677     C      0.500000000000     0.794400000000     0.205600000000     0          
C678     C      0.000000000000     0.895290000000     0.395290000000     0          
C679     C      0.000000000000     0.860500000000     0.360500000000     0          
C680     C      0.000000000000     0.794400000000     0.294400000000     0          
C681     C      0.500000000000     0.895290000000     0.895290000000     0          
C682     C      0.500000000000     0.860500000000     0.860500000000     0          
C683     C      0.500000000000     0.794400000000     0.794400000000     0          
C684     C      0.500000000000     0.395290000000     0.395290000000     0          
C685     C      0.500000000000     0.360500000000     0.360500000000     0          
C686     C      0.500000000000     0.294400000000     0.294400000000     0          
C687     C      0.000000000000     0.104710000000     0.604710000000     0          
C688     C      0.000000000000     0.139500000000     0.639500000000     0          
C689     C      0.000000000000     0.205600000000     0.705600000000     0          
C690     C      0.500000000000     0.104710000000     0.104710000000     0          
C691     C      0.500000000000     0.139500000000     0.139500000000     0          
C692     C      0.500000000000     0.205600000000     0.205600000000     0          
C693     C      0.395290000000     0.000000000000     0.104710000000     0          
C694     C      0.360500000000     0.000000000000     0.139500000000     0          
C695     C      0.294400000000     0.000000000000     0.205600000000     0          
C696     C      0.395290000000     0.500000000000     0.604710000000     0          
C697     C      0.360500000000     0.500000000000     0.639500000000     0          
C698     C      0.294400000000     0.500000000000     0.705600000000     0          
C699     C      0.604710000000     0.000000000000     0.895290000000     0          
C700     C      0.639500000000     0.000000000000     0.860500000000     0          
C701     C      0.705600000000     0.000000000000     0.794400000000     0          
C702     C      0.604710000000     0.500000000000     0.395290000000     0          
C703     C      0.639500000000     0.500000000000     0.360500000000     0          
C704     C      0.705600000000     0.500000000000     0.294400000000     0          
C705     C      0.104710000000     0.000000000000     0.395290000000     0          
C706     C      0.139500000000     0.000000000000     0.360500000000     0          
C707     C      0.205600000000     0.000000000000     0.294400000000     0          
C708     C      0.395290000000     0.000000000000     0.895290000000     0          
C709     C      0.360500000000     0.000000000000     0.860500000000     0          
C710     C      0.294400000000     0.000000000000     0.794400000000     0          
C711     C      0.395290000000     0.500000000000     0.395290000000     0          
C712     C      0.360500000000     0.500000000000     0.360500000000     0          
C713     C      0.294400000000     0.500000000000     0.294400000000     0          
C714     C      0.604710000000     0.000000000000     0.104710000000     0          
C715     C      0.639500000000     0.000000000000     0.139500000000     0          
C716     C      0.705600000000     0.000000000000     0.205600000000     0          
C717     C      0.604710000000     0.500000000000     0.604710000000     0          
C718     C      0.639500000000     0.500000000000     0.639500000000     0          
C719     C      0.705600000000     0.500000000000     0.705600000000     0          
C720     C      0.104710000000     0.500000000000     0.104710000000     0          
C721     C      0.139500000000     0.500000000000     0.139500000000     0          
C722     C      0.205600000000     0.500000000000     0.205600000000     0          
C723     C      0.395290000000     0.604710000000     0.500000000000     0          
C724     C      0.360500000000     0.639500000000     0.500000000000     0          
C725     C      0.294400000000     0.705600000000     0.500000000000     0          
C726     C      0.604710000000     0.895290000000     0.000000000000     0          
C727     C      0.639500000000     0.860500000000     0.000000000000     0          
C728     C      0.705600000000     0.794400000000     0.000000000000     0          
C729     C      0.604710000000     0.395290000000     0.500000000000     0          
C730     C      0.639500000000     0.360500000000     0.500000000000     0          
C731     C      0.705600000000     0.294400000000     0.500000000000     0          
C732     C      0.395290000000     0.895290000000     0.000000000000     0          
C733     C      0.360500000000     0.860500000000     0.000000000000     0          
C734     C      0.294400000000     0.794400000000     0.000000000000     0          
C735     C      0.604710000000     0.104710000000     0.000000000000     0          
C736     C      0.639500000000     0.139500000000     0.000000000000     0          
C737     C      0.705600000000     0.205600000000     0.000000000000     0          
C738     C      0.604710000000     0.604710000000     0.500000000000     0          
C739     C      0.639500000000     0.639500000000     0.500000000000     0          
C740     C      0.705600000000     0.705600000000     0.500000000000     0          
C741     C      0.104710000000     0.000000000000     0.604710000000     0          
C742     C      0.139500000000     0.000000000000     0.639500000000     0          
C743     C      0.205600000000     0.000000000000     0.705600000000     0          
C744     C      0.895290000000     0.000000000000     0.395290000000     0          
C745     C      0.860500000000     0.000000000000     0.360500000000     0          
C746     C      0.794400000000     0.000000000000     0.294400000000     0          
C747     C      0.895290000000     0.500000000000     0.895290000000     0          
C748     C      0.860500000000     0.500000000000     0.860500000000     0          
C749     C      0.794400000000     0.500000000000     0.794400000000     0          
C750     C      0.895290000000     0.000000000000     0.604710000000     0          
C751     C      0.860500000000     0.000000000000     0.639500000000     0          
C752     C      0.794400000000     0.000000000000     0.705600000000     0          
C753     C      0.895290000000     0.500000000000     0.104710000000     0          
C754     C      0.860500000000     0.500000000000     0.139500000000     0          
C755     C      0.794400000000     0.500000000000     0.205600000000     0          
C756     C      0.104710000000     0.500000000000     0.895290000000     0          
C757     C      0.139500000000     0.500000000000     0.860500000000     0          
C758     C      0.205600000000     0.500000000000     0.794400000000     0          
C759     C      0.000000000000     0.395290000000     0.895290000000     0          
C760     C      0.000000000000     0.360500000000     0.860500000000     0          
C761     C      0.000000000000     0.294400000000     0.794400000000     0          
C762     C      0.000000000000     0.604710000000     0.104710000000     0          
C763     C      0.000000000000     0.639500000000     0.139500000000     0          
C764     C      0.000000000000     0.705600000000     0.205600000000     0          
C765     C      0.500000000000     0.604710000000     0.604710000000     0          
C766     C      0.500000000000     0.639500000000     0.639500000000     0          
C767     C      0.500000000000     0.705600000000     0.705600000000     0          
C768     C      0.500000000000     0.395290000000     0.604710000000     0          
C769     C      0.500000000000     0.360500000000     0.639500000000     0          
C770     C      0.500000000000     0.294400000000     0.705600000000     0          
C771     C      0.000000000000     0.604710000000     0.895290000000     0          
C772     C      0.000000000000     0.639500000000     0.860500000000     0          
C773     C      0.000000000000     0.705600000000     0.794400000000     0          
C774     C      0.500000000000     0.604710000000     0.395290000000     0          
C775     C      0.500000000000     0.639500000000     0.360500000000     0          
C776     C      0.500000000000     0.705600000000     0.294400000000     0          


