data_ERALUG

_audit_creation_method RASPA-1.0
_audit_creation_date 2020-11-2
_audit_author_name 'Rocio Bueno-Perez'

_cell_length_a    34.882
_cell_length_b    34.882
_cell_length_c    12.086
_cell_angle_alpha 90
_cell_angle_beta  90
_cell_angle_gamma 90
_cell_volume      14705.7

_symmetry_cell_setting          triclinic
_symmetry_space_group_name_Hall 'P 1'
_symmetry_space_group_name_H-M  'P 1'
_symmetry_Int_Tables_number     1

_symmetry_equiv_pos_as_xyz 'x,y,z'

loop_
_atom_site_label
_atom_site_type_symbol
_atom_site_fract_x
_atom_site_fract_y
_atom_site_fract_z
_atom_site_charge
O1       O      0.394550000000     0.539410000000     0.429400000000     0          
O2       O      0.395370000000     0.478800000000     0.368100000000     0          
O3       O      0.073910000000     0.507730000000     0.259900000000     0          
O4       O      0.090600000000     0.554430000000     0.137900000000     0          
O5       O      0.440700000000     0.489700000000     0.542900000000     0          
O6       O      0.485950000000     0.535200000000     0.640500000000     0          
C7       C      0.378520000000     0.510100000000     0.390200000000     0          
C8       C      0.335880000000     0.512210000000     0.370500000000     0          
C9       C      0.317750000000     0.546990000000     0.390800000000     0          
H10      H      0.332200000000     0.568300000000     0.416100000000     0          
C11      C      0.257340000000     0.519300000000     0.337000000000     0          
C12      C      0.314740000000     0.480980000000     0.333400000000     0          
H13      H      0.327100000000     0.457200000000     0.319500000000     0          
C14      C      0.278480000000     0.550540000000     0.374000000000     0          
C15      C      0.275470000000     0.484510000000     0.316600000000     0          
C16      C      0.097130000000     0.533190000000     0.218300000000     0          
C17      C      0.138330000000     0.528720000000     0.253800000000     0          
C18      C      0.167340000000     0.542260000000     0.185400000000     0          
H19      H      0.161100000000     0.554200000000     0.117000000000     0          
C20      C      0.205470000000     0.538380000000     0.216800000000     0          
H21      H      0.225300000000     0.547600000000     0.169900000000     0          
C22      C      0.214620000000     0.520950000000     0.316800000000     0          
C23      C      0.185610000000     0.507410000000     0.385300000000     0          
C24      C      0.147480000000     0.511300000000     0.353800000000     0          
H25      H      0.127700000000     0.502000000000     0.400700000000     0          
C26      C      0.195700000000     0.490100000000     0.484700000000     0          
F27      F      0.167000000000     0.481500000000     0.552500000000     0          
F28      F      0.210000000000     0.452800000000     0.465300000000     0          
F29      F      0.222700000000     0.503400000000     0.550300000000     0          
H30      H      0.261000000000     0.463200000000     0.291300000000     0          
C31      C      0.262200000000     0.587800000000     0.397300000000     0          
F32      F      0.251600000000     0.609600000000     0.319500000000     0          
F33      F      0.229900000000     0.584900000000     0.460700000000     0          
F34      F      0.282300000000     0.611800000000     0.464700000000     0          
O35      O      0.105450000000     0.960590000000     0.429400000000     0          
O36      O      0.104630000000     0.021200000000     0.368100000000     0          
O37      O      0.426090000000     0.992270000000     0.259900000000     0          
O38      O      0.409400000000     0.945570000000     0.137900000000     0          
O39      O      0.059300000000     0.010300000000     0.542900000000     0          
O40      O      0.014050000000     0.964800000000     0.640500000000     0          
C41      C      0.121480000000     0.989900000000     0.390200000000     0          
C42      C      0.164120000000     0.987790000000     0.370500000000     0          
C43      C      0.182250000000     0.953010000000     0.390800000000     0          
H44      H      0.167800000000     0.931700000000     0.416100000000     0          
C45      C      0.242660000000     0.980700000000     0.337000000000     0          
C46      C      0.185260000000     0.019020000000     0.333400000000     0          
H47      H      0.172900000000     0.042800000000     0.319500000000     0          
C48      C      0.221520000000     0.949460000000     0.374000000000     0          
C49      C      0.224530000000     0.015490000000     0.316600000000     0          
C50      C      0.402870000000     0.966810000000     0.218300000000     0          
C51      C      0.361670000000     0.971280000000     0.253800000000     0          
C52      C      0.332660000000     0.957740000000     0.185400000000     0          
H53      H      0.338900000000     0.945800000000     0.117000000000     0          
C54      C      0.294530000000     0.961620000000     0.216800000000     0          
H55      H      0.274700000000     0.952400000000     0.169900000000     0          
C56      C      0.285380000000     0.979050000000     0.316800000000     0          
C57      C      0.314390000000     0.992590000000     0.385300000000     0          
C58      C      0.352520000000     0.988700000000     0.353800000000     0          
H59      H      0.372300000000     0.998000000000     0.400700000000     0          
C60      C      0.304300000000     0.009900000000     0.484700000000     0          
F61      F      0.333000000000     0.018500000000     0.552500000000     0          
F62      F      0.290000000000     0.047200000000     0.465300000000     0          
F63      F      0.277300000000     0.996600000000     0.550300000000     0          
H64      H      0.239000000000     0.036800000000     0.291300000000     0          
C65      C      0.237800000000     0.912200000000     0.397300000000     0          
F66      F      0.248400000000     0.890400000000     0.319500000000     0          
F67      F      0.270100000000     0.915100000000     0.460700000000     0          
F68      F      0.217700000000     0.888200000000     0.464700000000     0          
O69      O      0.960590000000     0.394550000000     0.929400000000     0          
O70      O      0.021200000000     0.395370000000     0.868100000000     0          
O71      O      0.992270000000     0.073910000000     0.759900000000     0          
O72      O      0.945570000000     0.090600000000     0.637900000000     0          
O73      O      0.010300000000     0.440700000000     0.042900000000     0          
O74      O      0.964800000000     0.485950000000     0.140500000000     0          
C75      C      0.989900000000     0.378520000000     0.890200000000     0          
C76      C      0.987790000000     0.335880000000     0.870500000000     0          
C77      C      0.953010000000     0.317750000000     0.890800000000     0          
H78      H      0.931700000000     0.332200000000     0.916100000000     0          
C79      C      0.980700000000     0.257340000000     0.837000000000     0          
C80      C      0.019020000000     0.314740000000     0.833400000000     0          
H81      H      0.042800000000     0.327100000000     0.819500000000     0          
C82      C      0.949460000000     0.278480000000     0.874000000000     0          
C83      C      0.015490000000     0.275470000000     0.816600000000     0          
C84      C      0.966810000000     0.097130000000     0.718300000000     0          
C85      C      0.971280000000     0.138330000000     0.753800000000     0          
C86      C      0.957740000000     0.167340000000     0.685400000000     0          
H87      H      0.945800000000     0.161100000000     0.617000000000     0          
C88      C      0.961620000000     0.205470000000     0.716800000000     0          
H89      H      0.952400000000     0.225300000000     0.669900000000     0          
C90      C      0.979050000000     0.214620000000     0.816800000000     0          
C91      C      0.992590000000     0.185610000000     0.885300000000     0          
C92      C      0.988700000000     0.147480000000     0.853800000000     0          
H93      H      0.998000000000     0.127700000000     0.900700000000     0          
C94      C      0.009900000000     0.195700000000     0.984700000000     0          
F95      F      0.018500000000     0.167000000000     0.052500000000     0          
F96      F      0.047200000000     0.210000000000     0.965300000000     0          
F97      F      0.996600000000     0.222700000000     0.050300000000     0          
H98      H      0.036800000000     0.261000000000     0.791300000000     0          
C99      C      0.912200000000     0.262200000000     0.897300000000     0          
F100     F      0.890400000000     0.251600000000     0.819500000000     0          
F101     F      0.915100000000     0.229900000000     0.960700000000     0          
F102     F      0.888200000000     0.282300000000     0.964700000000     0          
O103     O      0.539410000000     0.105450000000     0.929400000000     0          
O104     O      0.478800000000     0.104630000000     0.868100000000     0          
O105     O      0.507730000000     0.426090000000     0.759900000000     0          
O106     O      0.554430000000     0.409400000000     0.637900000000     0          
O107     O      0.489700000000     0.059300000000     0.042900000000     0          
O108     O      0.535200000000     0.014050000000     0.140500000000     0          
C109     C      0.510100000000     0.121480000000     0.890200000000     0          
C110     C      0.512210000000     0.164120000000     0.870500000000     0          
C111     C      0.546990000000     0.182250000000     0.890800000000     0          
H112     H      0.568300000000     0.167800000000     0.916100000000     0          
C113     C      0.519300000000     0.242660000000     0.837000000000     0          
C114     C      0.480980000000     0.185260000000     0.833400000000     0          
H115     H      0.457200000000     0.172900000000     0.819500000000     0          
C116     C      0.550540000000     0.221520000000     0.874000000000     0          
C117     C      0.484510000000     0.224530000000     0.816600000000     0          
C118     C      0.533190000000     0.402870000000     0.718300000000     0          
C119     C      0.528720000000     0.361670000000     0.753800000000     0          
C120     C      0.542260000000     0.332660000000     0.685400000000     0          
H121     H      0.554200000000     0.338900000000     0.617000000000     0          
C122     C      0.538380000000     0.294530000000     0.716800000000     0          
H123     H      0.547600000000     0.274700000000     0.669900000000     0          
C124     C      0.520950000000     0.285380000000     0.816800000000     0          
C125     C      0.507410000000     0.314390000000     0.885300000000     0          
C126     C      0.511300000000     0.352520000000     0.853800000000     0          
H127     H      0.502000000000     0.372300000000     0.900700000000     0          
C128     C      0.490100000000     0.304300000000     0.984700000000     0          
F129     F      0.481500000000     0.333000000000     0.052500000000     0          
F130     F      0.452800000000     0.290000000000     0.965300000000     0          
F131     F      0.503400000000     0.277300000000     0.050300000000     0          
H132     H      0.463200000000     0.239000000000     0.791300000000     0          
C133     C      0.587800000000     0.237800000000     0.897300000000     0          
F134     F      0.609600000000     0.248400000000     0.819500000000     0          
F135     F      0.584900000000     0.270100000000     0.960700000000     0          
F136     F      0.611800000000     0.217700000000     0.964700000000     0          
O137     O      0.605450000000     0.039410000000     0.070600000000     0          
O138     O      0.604630000000     0.978800000000     0.131900000000     0          
O139     O      0.926090000000     0.007730000000     0.240100000000     0          
O140     O      0.909400000000     0.054430000000     0.362100000000     0          
O141     O      0.559300000000     0.989700000000     0.957100000000     0          
O142     O      0.514050000000     0.035200000000     0.859500000000     0          
C143     C      0.621480000000     0.010100000000     0.109800000000     0          
C144     C      0.664120000000     0.012210000000     0.129500000000     0          
C145     C      0.682250000000     0.046990000000     0.109200000000     0          
H146     H      0.667800000000     0.068300000000     0.083900000000     0          
C147     C      0.742660000000     0.019300000000     0.163000000000     0          
C148     C      0.685260000000     0.980980000000     0.166600000000     0          
H149     H      0.672900000000     0.957200000000     0.180500000000     0          
C150     C      0.721520000000     0.050540000000     0.126000000000     0          
C151     C      0.724530000000     0.984510000000     0.183400000000     0          
C152     C      0.902870000000     0.033190000000     0.281700000000     0          
C153     C      0.861670000000     0.028720000000     0.246200000000     0          
C154     C      0.832660000000     0.042260000000     0.314600000000     0          
H155     H      0.838900000000     0.054200000000     0.383000000000     0          
C156     C      0.794530000000     0.038380000000     0.283200000000     0          
H157     H      0.774700000000     0.047600000000     0.330100000000     0          
C158     C      0.785380000000     0.020950000000     0.183200000000     0          
C159     C      0.814390000000     0.007410000000     0.114700000000     0          
C160     C      0.852520000000     0.011300000000     0.146200000000     0          
H161     H      0.872300000000     0.002000000000     0.099300000000     0          
C162     C      0.804300000000     0.990100000000     0.015300000000     0          
F163     F      0.833000000000     0.981500000000     0.947500000000     0          
F164     F      0.790000000000     0.952800000000     0.034700000000     0          
F165     F      0.777300000000     0.003400000000     0.949700000000     0          
H166     H      0.739000000000     0.963200000000     0.208700000000     0          
C167     C      0.737800000000     0.087800000000     0.102700000000     0          
F168     F      0.748400000000     0.109600000000     0.180500000000     0          
F169     F      0.770100000000     0.084900000000     0.039300000000     0          
F170     F      0.717700000000     0.111800000000     0.035300000000     0          
O171     O      0.894550000000     0.460590000000     0.070600000000     0          
O172     O      0.895370000000     0.521200000000     0.131900000000     0          
O173     O      0.573910000000     0.492270000000     0.240100000000     0          
O174     O      0.590600000000     0.445570000000     0.362100000000     0          
O175     O      0.940700000000     0.510300000000     0.957100000000     0          
O176     O      0.985950000000     0.464800000000     0.859500000000     0          
C177     C      0.878520000000     0.489900000000     0.109800000000     0          
C178     C      0.835880000000     0.487790000000     0.129500000000     0          
C179     C      0.817750000000     0.453010000000     0.109200000000     0          
H180     H      0.832200000000     0.431700000000     0.083900000000     0          
C181     C      0.757340000000     0.480700000000     0.163000000000     0          
C182     C      0.814740000000     0.519020000000     0.166600000000     0          
H183     H      0.827100000000     0.542800000000     0.180500000000     0          
C184     C      0.778480000000     0.449460000000     0.126000000000     0          
C185     C      0.775470000000     0.515490000000     0.183400000000     0          
C186     C      0.597130000000     0.466810000000     0.281700000000     0          
C187     C      0.638330000000     0.471280000000     0.246200000000     0          
C188     C      0.667340000000     0.457740000000     0.314600000000     0          
H189     H      0.661100000000     0.445800000000     0.383000000000     0          
C190     C      0.705470000000     0.461620000000     0.283200000000     0          
H191     H      0.725300000000     0.452400000000     0.330100000000     0          
C192     C      0.714620000000     0.479050000000     0.183200000000     0          
C193     C      0.685610000000     0.492590000000     0.114700000000     0          
C194     C      0.647480000000     0.488700000000     0.146200000000     0          
H195     H      0.627700000000     0.498000000000     0.099300000000     0          
C196     C      0.695700000000     0.509900000000     0.015300000000     0          
F197     F      0.667000000000     0.518500000000     0.947500000000     0          
F198     F      0.710000000000     0.547200000000     0.034700000000     0          
F199     F      0.722700000000     0.496600000000     0.949700000000     0          
H200     H      0.761000000000     0.536800000000     0.208700000000     0          
C201     C      0.762200000000     0.412200000000     0.102700000000     0          
F202     F      0.751600000000     0.390400000000     0.180500000000     0          
F203     F      0.729900000000     0.415100000000     0.039300000000     0          
F204     F      0.782300000000     0.388200000000     0.035300000000     0          
O205     O      0.039410000000     0.894550000000     0.570600000000     0          
O206     O      0.978800000000     0.895370000000     0.631900000000     0          
O207     O      0.007730000000     0.573910000000     0.740100000000     0          
O208     O      0.054430000000     0.590600000000     0.862100000000     0          
O209     O      0.989700000000     0.940700000000     0.457100000000     0          
O210     O      0.035200000000     0.985950000000     0.359500000000     0          
C211     C      0.010100000000     0.878520000000     0.609800000000     0          
C212     C      0.012210000000     0.835880000000     0.629500000000     0          
C213     C      0.046990000000     0.817750000000     0.609200000000     0          
H214     H      0.068300000000     0.832200000000     0.583900000000     0          
C215     C      0.019300000000     0.757340000000     0.663000000000     0          
C216     C      0.980980000000     0.814740000000     0.666600000000     0          
H217     H      0.957200000000     0.827100000000     0.680500000000     0          
C218     C      0.050540000000     0.778480000000     0.626000000000     0          
C219     C      0.984510000000     0.775470000000     0.683400000000     0          
C220     C      0.033190000000     0.597130000000     0.781700000000     0          
C221     C      0.028720000000     0.638330000000     0.746200000000     0          
C222     C      0.042260000000     0.667340000000     0.814600000000     0          
H223     H      0.054200000000     0.661100000000     0.883000000000     0          
C224     C      0.038380000000     0.705470000000     0.783200000000     0          
H225     H      0.047600000000     0.725300000000     0.830100000000     0          
C226     C      0.020950000000     0.714620000000     0.683200000000     0          
C227     C      0.007410000000     0.685610000000     0.614700000000     0          
C228     C      0.011300000000     0.647480000000     0.646200000000     0          
H229     H      0.002000000000     0.627700000000     0.599300000000     0          
C230     C      0.990100000000     0.695700000000     0.515300000000     0          
F231     F      0.981500000000     0.667000000000     0.447500000000     0          
F232     F      0.952800000000     0.710000000000     0.534700000000     0          
F233     F      0.003400000000     0.722700000000     0.449700000000     0          
H234     H      0.963200000000     0.761000000000     0.708700000000     0          
C235     C      0.087800000000     0.762200000000     0.602700000000     0          
F236     F      0.109600000000     0.751600000000     0.680500000000     0          
F237     F      0.084900000000     0.729900000000     0.539300000000     0          
F238     F      0.111800000000     0.782300000000     0.535300000000     0          
O239     O      0.460590000000     0.605450000000     0.570600000000     0          
O240     O      0.521200000000     0.604630000000     0.631900000000     0          
O241     O      0.492270000000     0.926090000000     0.740100000000     0          
O242     O      0.445570000000     0.909400000000     0.862100000000     0          
O243     O      0.510300000000     0.559300000000     0.457100000000     0          
O244     O      0.464800000000     0.514050000000     0.359500000000     0          
C245     C      0.489900000000     0.621480000000     0.609800000000     0          
C246     C      0.487790000000     0.664120000000     0.629500000000     0          
C247     C      0.453010000000     0.682250000000     0.609200000000     0          
H248     H      0.431700000000     0.667800000000     0.583900000000     0          
C249     C      0.480700000000     0.742660000000     0.663000000000     0          
C250     C      0.519020000000     0.685260000000     0.666600000000     0          
H251     H      0.542800000000     0.672900000000     0.680500000000     0          
C252     C      0.449460000000     0.721520000000     0.626000000000     0          
C253     C      0.515490000000     0.724530000000     0.683400000000     0          
C254     C      0.466810000000     0.902870000000     0.781700000000     0          
C255     C      0.471280000000     0.861670000000     0.746200000000     0          
C256     C      0.457740000000     0.832660000000     0.814600000000     0          
H257     H      0.445800000000     0.838900000000     0.883000000000     0          
C258     C      0.461620000000     0.794530000000     0.783200000000     0          
H259     H      0.452400000000     0.774700000000     0.830100000000     0          
C260     C      0.479050000000     0.785380000000     0.683200000000     0          
C261     C      0.492590000000     0.814390000000     0.614700000000     0          
C262     C      0.488700000000     0.852520000000     0.646200000000     0          
H263     H      0.498000000000     0.872300000000     0.599300000000     0          
C264     C      0.509900000000     0.804300000000     0.515300000000     0          
F265     F      0.518500000000     0.833000000000     0.447500000000     0          
F266     F      0.547200000000     0.790000000000     0.534700000000     0          
F267     F      0.496600000000     0.777300000000     0.449700000000     0          
H268     H      0.536800000000     0.739000000000     0.708700000000     0          
C269     C      0.412200000000     0.737800000000     0.602700000000     0          
F270     F      0.390400000000     0.748400000000     0.680500000000     0          
F271     F      0.415100000000     0.770100000000     0.539300000000     0          
F272     F      0.388200000000     0.717700000000     0.535300000000     0          
O273     O      0.605450000000     0.460590000000     0.570600000000     0          
O274     O      0.604630000000     0.521200000000     0.631900000000     0          
O275     O      0.926090000000     0.492270000000     0.740100000000     0          
O276     O      0.909400000000     0.445570000000     0.862100000000     0          
O277     O      0.559300000000     0.510300000000     0.457100000000     0          
O278     O      0.514050000000     0.464800000000     0.359500000000     0          
C279     C      0.621480000000     0.489900000000     0.609800000000     0          
C280     C      0.664120000000     0.487790000000     0.629500000000     0          
C281     C      0.682250000000     0.453010000000     0.609200000000     0          
H282     H      0.667800000000     0.431700000000     0.583900000000     0          
C283     C      0.742660000000     0.480700000000     0.663000000000     0          
C284     C      0.685260000000     0.519020000000     0.666600000000     0          
H285     H      0.672900000000     0.542800000000     0.680500000000     0          
C286     C      0.721520000000     0.449460000000     0.626000000000     0          
C287     C      0.724530000000     0.515490000000     0.683400000000     0          
C288     C      0.902870000000     0.466810000000     0.781700000000     0          
C289     C      0.861670000000     0.471280000000     0.746200000000     0          
C290     C      0.832660000000     0.457740000000     0.814600000000     0          
H291     H      0.838900000000     0.445800000000     0.883000000000     0          
C292     C      0.794530000000     0.461620000000     0.783200000000     0          
H293     H      0.774700000000     0.452400000000     0.830100000000     0          
C294     C      0.785380000000     0.479050000000     0.683200000000     0          
C295     C      0.814390000000     0.492590000000     0.614700000000     0          
C296     C      0.852520000000     0.488700000000     0.646200000000     0          
H297     H      0.872300000000     0.498000000000     0.599300000000     0          
C298     C      0.804300000000     0.509900000000     0.515300000000     0          
F299     F      0.833000000000     0.518500000000     0.447500000000     0          
F300     F      0.790000000000     0.547200000000     0.534700000000     0          
F301     F      0.777300000000     0.496600000000     0.449700000000     0          
H302     H      0.739000000000     0.536800000000     0.708700000000     0          
C303     C      0.737800000000     0.412200000000     0.602700000000     0          
F304     F      0.748400000000     0.390400000000     0.680500000000     0          
F305     F      0.770100000000     0.415100000000     0.539300000000     0          
F306     F      0.717700000000     0.388200000000     0.535300000000     0          
O307     O      0.894550000000     0.039410000000     0.570600000000     0          
O308     O      0.895370000000     0.978800000000     0.631900000000     0          
O309     O      0.573910000000     0.007730000000     0.740100000000     0          
O310     O      0.590600000000     0.054430000000     0.862100000000     0          
O311     O      0.940700000000     0.989700000000     0.457100000000     0          
O312     O      0.985950000000     0.035200000000     0.359500000000     0          
C313     C      0.878520000000     0.010100000000     0.609800000000     0          
C314     C      0.835880000000     0.012210000000     0.629500000000     0          
C315     C      0.817750000000     0.046990000000     0.609200000000     0          
H316     H      0.832200000000     0.068300000000     0.583900000000     0          
C317     C      0.757340000000     0.019300000000     0.663000000000     0          
C318     C      0.814740000000     0.980980000000     0.666600000000     0          
H319     H      0.827100000000     0.957200000000     0.680500000000     0          
C320     C      0.778480000000     0.050540000000     0.626000000000     0          
C321     C      0.775470000000     0.984510000000     0.683400000000     0          
C322     C      0.597130000000     0.033190000000     0.781700000000     0          
C323     C      0.638330000000     0.028720000000     0.746200000000     0          
C324     C      0.667340000000     0.042260000000     0.814600000000     0          
H325     H      0.661100000000     0.054200000000     0.883000000000     0          
C326     C      0.705470000000     0.038380000000     0.783200000000     0          
H327     H      0.725300000000     0.047600000000     0.830100000000     0          
C328     C      0.714620000000     0.020950000000     0.683200000000     0          
C329     C      0.685610000000     0.007410000000     0.614700000000     0          
C330     C      0.647480000000     0.011300000000     0.646200000000     0          
H331     H      0.627700000000     0.002000000000     0.599300000000     0          
C332     C      0.695700000000     0.990100000000     0.515300000000     0          
F333     F      0.667000000000     0.981500000000     0.447500000000     0          
F334     F      0.710000000000     0.952800000000     0.534700000000     0          
F335     F      0.722700000000     0.003400000000     0.449700000000     0          
H336     H      0.761000000000     0.963200000000     0.708700000000     0          
C337     C      0.762200000000     0.087800000000     0.602700000000     0          
F338     F      0.751600000000     0.109600000000     0.680500000000     0          
F339     F      0.729900000000     0.084900000000     0.539300000000     0          
F340     F      0.782300000000     0.111800000000     0.535300000000     0          
O341     O      0.039410000000     0.605450000000     0.070600000000     0          
O342     O      0.978800000000     0.604630000000     0.131900000000     0          
O343     O      0.007730000000     0.926090000000     0.240100000000     0          
O344     O      0.054430000000     0.909400000000     0.362100000000     0          
O345     O      0.989700000000     0.559300000000     0.957100000000     0          
O346     O      0.035200000000     0.514050000000     0.859500000000     0          
C347     C      0.010100000000     0.621480000000     0.109800000000     0          
C348     C      0.012210000000     0.664120000000     0.129500000000     0          
C349     C      0.046990000000     0.682250000000     0.109200000000     0          
H350     H      0.068300000000     0.667800000000     0.083900000000     0          
C351     C      0.019300000000     0.742660000000     0.163000000000     0          
C352     C      0.980980000000     0.685260000000     0.166600000000     0          
H353     H      0.957200000000     0.672900000000     0.180500000000     0          
C354     C      0.050540000000     0.721520000000     0.126000000000     0          
C355     C      0.984510000000     0.724530000000     0.183400000000     0          
C356     C      0.033190000000     0.902870000000     0.281700000000     0          
C357     C      0.028720000000     0.861670000000     0.246200000000     0          
C358     C      0.042260000000     0.832660000000     0.314600000000     0          
H359     H      0.054200000000     0.838900000000     0.383000000000     0          
C360     C      0.038380000000     0.794530000000     0.283200000000     0          
H361     H      0.047600000000     0.774700000000     0.330100000000     0          
C362     C      0.020950000000     0.785380000000     0.183200000000     0          
C363     C      0.007410000000     0.814390000000     0.114700000000     0          
C364     C      0.011300000000     0.852520000000     0.146200000000     0          
H365     H      0.002000000000     0.872300000000     0.099300000000     0          
C366     C      0.990100000000     0.804300000000     0.015300000000     0          
F367     F      0.981500000000     0.833000000000     0.947500000000     0          
F368     F      0.952800000000     0.790000000000     0.034700000000     0          
F369     F      0.003400000000     0.777300000000     0.949700000000     0          
H370     H      0.963200000000     0.739000000000     0.208700000000     0          
C371     C      0.087800000000     0.737800000000     0.102700000000     0          
F372     F      0.109600000000     0.748400000000     0.180500000000     0          
F373     F      0.084900000000     0.770100000000     0.039300000000     0          
F374     F      0.111800000000     0.717700000000     0.035300000000     0          
O375     O      0.460590000000     0.894550000000     0.070600000000     0          
O376     O      0.521200000000     0.895370000000     0.131900000000     0          
O377     O      0.492270000000     0.573910000000     0.240100000000     0          
O378     O      0.445570000000     0.590600000000     0.362100000000     0          
O379     O      0.510300000000     0.940700000000     0.957100000000     0          
O380     O      0.464800000000     0.985950000000     0.859500000000     0          
C381     C      0.489900000000     0.878520000000     0.109800000000     0          
C382     C      0.487790000000     0.835880000000     0.129500000000     0          
C383     C      0.453010000000     0.817750000000     0.109200000000     0          
H384     H      0.431700000000     0.832200000000     0.083900000000     0          
C385     C      0.480700000000     0.757340000000     0.163000000000     0          
C386     C      0.519020000000     0.814740000000     0.166600000000     0          
H387     H      0.542800000000     0.827100000000     0.180500000000     0          
C388     C      0.449460000000     0.778480000000     0.126000000000     0          
C389     C      0.515490000000     0.775470000000     0.183400000000     0          
C390     C      0.466810000000     0.597130000000     0.281700000000     0          
C391     C      0.471280000000     0.638330000000     0.246200000000     0          
C392     C      0.457740000000     0.667340000000     0.314600000000     0          
H393     H      0.445800000000     0.661100000000     0.383000000000     0          
C394     C      0.461620000000     0.705470000000     0.283200000000     0          
H395     H      0.452400000000     0.725300000000     0.330100000000     0          
C396     C      0.479050000000     0.714620000000     0.183200000000     0          
C397     C      0.492590000000     0.685610000000     0.114700000000     0          
C398     C      0.488700000000     0.647480000000     0.146200000000     0          
H399     H      0.498000000000     0.627700000000     0.099300000000     0          
C400     C      0.509900000000     0.695700000000     0.015300000000     0          
F401     F      0.518500000000     0.667000000000     0.947500000000     0          
F402     F      0.547200000000     0.710000000000     0.034700000000     0          
F403     F      0.496600000000     0.722700000000     0.949700000000     0          
H404     H      0.536800000000     0.761000000000     0.208700000000     0          
C405     C      0.412200000000     0.762200000000     0.102700000000     0          
F406     F      0.390400000000     0.751600000000     0.180500000000     0          
F407     F      0.415100000000     0.729900000000     0.039300000000     0          
F408     F      0.388200000000     0.782300000000     0.035300000000     0          
O409     O      0.394550000000     0.960590000000     0.929400000000     0          
O410     O      0.395370000000     0.021200000000     0.868100000000     0          
O411     O      0.073910000000     0.992270000000     0.759900000000     0          
O412     O      0.090600000000     0.945570000000     0.637900000000     0          
O413     O      0.440700000000     0.010300000000     0.042900000000     0          
O414     O      0.485950000000     0.964800000000     0.140500000000     0          
C415     C      0.378520000000     0.989900000000     0.890200000000     0          
C416     C      0.335880000000     0.987790000000     0.870500000000     0          
C417     C      0.317750000000     0.953010000000     0.890800000000     0          
H418     H      0.332200000000     0.931700000000     0.916100000000     0          
C419     C      0.257340000000     0.980700000000     0.837000000000     0          
C420     C      0.314740000000     0.019020000000     0.833400000000     0          
H421     H      0.327100000000     0.042800000000     0.819500000000     0          
C422     C      0.278480000000     0.949460000000     0.874000000000     0          
C423     C      0.275470000000     0.015490000000     0.816600000000     0          
C424     C      0.097130000000     0.966810000000     0.718300000000     0          
C425     C      0.138330000000     0.971280000000     0.753800000000     0          
C426     C      0.167340000000     0.957740000000     0.685400000000     0          
H427     H      0.161100000000     0.945800000000     0.617000000000     0          
C428     C      0.205470000000     0.961620000000     0.716800000000     0          
H429     H      0.225300000000     0.952400000000     0.669900000000     0          
C430     C      0.214620000000     0.979050000000     0.816800000000     0          
C431     C      0.185610000000     0.992590000000     0.885300000000     0          
C432     C      0.147480000000     0.988700000000     0.853800000000     0          
H433     H      0.127700000000     0.998000000000     0.900700000000     0          
C434     C      0.195700000000     0.009900000000     0.984700000000     0          
F435     F      0.167000000000     0.018500000000     0.052500000000     0          
F436     F      0.210000000000     0.047200000000     0.965300000000     0          
F437     F      0.222700000000     0.996600000000     0.050300000000     0          
H438     H      0.261000000000     0.036800000000     0.791300000000     0          
C439     C      0.262200000000     0.912200000000     0.897300000000     0          
F440     F      0.251600000000     0.890400000000     0.819500000000     0          
F441     F      0.229900000000     0.915100000000     0.960700000000     0          
F442     F      0.282300000000     0.888200000000     0.964700000000     0          
O443     O      0.105450000000     0.539410000000     0.929400000000     0          
O444     O      0.104630000000     0.478800000000     0.868100000000     0          
O445     O      0.426090000000     0.507730000000     0.759900000000     0          
O446     O      0.409400000000     0.554430000000     0.637900000000     0          
O447     O      0.059300000000     0.489700000000     0.042900000000     0          
O448     O      0.014050000000     0.535200000000     0.140500000000     0          
C449     C      0.121480000000     0.510100000000     0.890200000000     0          
C450     C      0.164120000000     0.512210000000     0.870500000000     0          
C451     C      0.182250000000     0.546990000000     0.890800000000     0          
H452     H      0.167800000000     0.568300000000     0.916100000000     0          
C453     C      0.242660000000     0.519300000000     0.837000000000     0          
C454     C      0.185260000000     0.480980000000     0.833400000000     0          
H455     H      0.172900000000     0.457200000000     0.819500000000     0          
C456     C      0.221520000000     0.550540000000     0.874000000000     0          
C457     C      0.224530000000     0.484510000000     0.816600000000     0          
C458     C      0.402870000000     0.533190000000     0.718300000000     0          
C459     C      0.361670000000     0.528720000000     0.753800000000     0          
C460     C      0.332660000000     0.542260000000     0.685400000000     0          
H461     H      0.338900000000     0.554200000000     0.617000000000     0          
C462     C      0.294530000000     0.538380000000     0.716800000000     0          
H463     H      0.274700000000     0.547600000000     0.669900000000     0          
C464     C      0.285380000000     0.520950000000     0.816800000000     0          
C465     C      0.314390000000     0.507410000000     0.885300000000     0          
C466     C      0.352520000000     0.511300000000     0.853800000000     0          
H467     H      0.372300000000     0.502000000000     0.900700000000     0          
C468     C      0.304300000000     0.490100000000     0.984700000000     0          
F469     F      0.333000000000     0.481500000000     0.052500000000     0          
F470     F      0.290000000000     0.452800000000     0.965300000000     0          
F471     F      0.277300000000     0.503400000000     0.050300000000     0          
H472     H      0.239000000000     0.463200000000     0.791300000000     0          
C473     C      0.237800000000     0.587800000000     0.897300000000     0          
F474     F      0.248400000000     0.609600000000     0.819500000000     0          
F475     F      0.270100000000     0.584900000000     0.960700000000     0          
F476     F      0.217700000000     0.611800000000     0.964700000000     0          
O477     O      0.960590000000     0.105450000000     0.429400000000     0          
O478     O      0.021200000000     0.104630000000     0.368100000000     0          
O479     O      0.992270000000     0.426090000000     0.259900000000     0          
O480     O      0.945570000000     0.409400000000     0.137900000000     0          
O481     O      0.010300000000     0.059300000000     0.542900000000     0          
O482     O      0.964800000000     0.014050000000     0.640500000000     0          
C483     C      0.989900000000     0.121480000000     0.390200000000     0          
C484     C      0.987790000000     0.164120000000     0.370500000000     0          
C485     C      0.953010000000     0.182250000000     0.390800000000     0          
H486     H      0.931700000000     0.167800000000     0.416100000000     0          
C487     C      0.980700000000     0.242660000000     0.337000000000     0          
C488     C      0.019020000000     0.185260000000     0.333400000000     0          
H489     H      0.042800000000     0.172900000000     0.319500000000     0          
C490     C      0.949460000000     0.221520000000     0.374000000000     0          
C491     C      0.015490000000     0.224530000000     0.316600000000     0          
C492     C      0.966810000000     0.402870000000     0.218300000000     0          
C493     C      0.971280000000     0.361670000000     0.253800000000     0          
C494     C      0.957740000000     0.332660000000     0.185400000000     0          
H495     H      0.945800000000     0.338900000000     0.117000000000     0          
C496     C      0.961620000000     0.294530000000     0.216800000000     0          
H497     H      0.952400000000     0.274700000000     0.169900000000     0          
C498     C      0.979050000000     0.285380000000     0.316800000000     0          
C499     C      0.992590000000     0.314390000000     0.385300000000     0          
C500     C      0.988700000000     0.352520000000     0.353800000000     0          
H501     H      0.998000000000     0.372300000000     0.400700000000     0          
C502     C      0.009900000000     0.304300000000     0.484700000000     0          
F503     F      0.018500000000     0.333000000000     0.552500000000     0          
F504     F      0.047200000000     0.290000000000     0.465300000000     0          
F505     F      0.996600000000     0.277300000000     0.550300000000     0          
H506     H      0.036800000000     0.239000000000     0.291300000000     0          
C507     C      0.912200000000     0.237800000000     0.397300000000     0          
F508     F      0.890400000000     0.248400000000     0.319500000000     0          
F509     F      0.915100000000     0.270100000000     0.460700000000     0          
F510     F      0.888200000000     0.217700000000     0.464700000000     0          
O511     O      0.539410000000     0.394550000000     0.429400000000     0          
O512     O      0.478800000000     0.395370000000     0.368100000000     0          
O513     O      0.507730000000     0.073910000000     0.259900000000     0          
O514     O      0.554430000000     0.090600000000     0.137900000000     0          
O515     O      0.489700000000     0.440700000000     0.542900000000     0          
O516     O      0.535200000000     0.485950000000     0.640500000000     0          
C517     C      0.510100000000     0.378520000000     0.390200000000     0          
C518     C      0.512210000000     0.335880000000     0.370500000000     0          
C519     C      0.546990000000     0.317750000000     0.390800000000     0          
H520     H      0.568300000000     0.332200000000     0.416100000000     0          
C521     C      0.519300000000     0.257340000000     0.337000000000     0          
C522     C      0.480980000000     0.314740000000     0.333400000000     0          
H523     H      0.457200000000     0.327100000000     0.319500000000     0          
C524     C      0.550540000000     0.278480000000     0.374000000000     0          
C525     C      0.484510000000     0.275470000000     0.316600000000     0          
C526     C      0.533190000000     0.097130000000     0.218300000000     0          
C527     C      0.528720000000     0.138330000000     0.253800000000     0          
C528     C      0.542260000000     0.167340000000     0.185400000000     0          
H529     H      0.554200000000     0.161100000000     0.117000000000     0          
C530     C      0.538380000000     0.205470000000     0.216800000000     0          
H531     H      0.547600000000     0.225300000000     0.169900000000     0          
C532     C      0.520950000000     0.214620000000     0.316800000000     0          
C533     C      0.507410000000     0.185610000000     0.385300000000     0          
C534     C      0.511300000000     0.147480000000     0.353800000000     0          
H535     H      0.502000000000     0.127700000000     0.400700000000     0          
C536     C      0.490100000000     0.195700000000     0.484700000000     0          
F537     F      0.481500000000     0.167000000000     0.552500000000     0          
F538     F      0.452800000000     0.210000000000     0.465300000000     0          
F539     F      0.503400000000     0.222700000000     0.550300000000     0          
H540     H      0.463200000000     0.261000000000     0.291300000000     0          
C541     C      0.587800000000     0.262200000000     0.397300000000     0          
F542     F      0.609600000000     0.251600000000     0.319500000000     0          
F543     F      0.584900000000     0.229900000000     0.460700000000     0          
F544     F      0.611800000000     0.282300000000     0.464700000000     0          
Zr545    Zr     0.454990000000     0.454990000000     0.405800000000     0          
Zr546    Zr     0.476830000000     0.476830000000     0.683750000000     0          
Zr547    Zr     0.045010000000     0.045010000000     0.405800000000     0          
Zr548    Zr     0.023170000000     0.023170000000     0.683750000000     0          
Zr549    Zr     0.045010000000     0.454990000000     0.905800000000     0          
Zr550    Zr     0.023170000000     0.476830000000     0.183750000000     0          
Zr551    Zr     0.454990000000     0.045010000000     0.905800000000     0          
Zr552    Zr     0.476830000000     0.023170000000     0.183750000000     0          
Zr553    Zr     0.545010000000     0.954990000000     0.094200000000     0          
Zr554    Zr     0.523170000000     0.976830000000     0.816250000000     0          
Zr555    Zr     0.954990000000     0.545010000000     0.094200000000     0          
Zr556    Zr     0.976830000000     0.523170000000     0.816250000000     0          
Zr557    Zr     0.954990000000     0.954990000000     0.594200000000     0          
Zr558    Zr     0.976830000000     0.976830000000     0.316250000000     0          
Zr559    Zr     0.545010000000     0.545010000000     0.594200000000     0          
Zr560    Zr     0.523170000000     0.523170000000     0.316250000000     0          
Zr561    Zr     0.450210000000     0.549790000000     0.500000000000     0          
Zr562    Zr     0.049790000000     0.950210000000     0.500000000000     0          
Zr563    Zr     0.950210000000     0.450210000000     0.000000000000     0          
Zr564    Zr     0.549790000000     0.049790000000     0.000000000000     0          
Zr565    Zr     0.549790000000     0.450210000000     0.500000000000     0          
Zr566    Zr     0.950210000000     0.049790000000     0.500000000000     0          
Zr567    Zr     0.049790000000     0.549790000000     0.000000000000     0          
Zr568    Zr     0.450210000000     0.950210000000     0.000000000000     0          


