data_ERAMOB

_audit_creation_method RASPA-1.0
_audit_creation_date 2020-11-2
_audit_author_name 'Rocio Bueno-Perez'

_cell_length_a    35.053
_cell_length_b    35.053
_cell_length_c    12.665
_cell_angle_alpha 90
_cell_angle_beta  90
_cell_angle_gamma 90
_cell_volume      15561.6

_symmetry_cell_setting          tetragonal
_symmetry_space_group_name_Hall 'P 1'
_symmetry_space_group_name_H-M  'P 1'
_symmetry_Int_Tables_number     1

_symmetry_equiv_pos_as_xyz 'x,y,z'

loop_
_atom_site_label
_atom_site_type_symbol
_atom_site_fract_x
_atom_site_fract_y
_atom_site_fract_z
_atom_site_charge
O1       O      0.513660000000     0.594500000000     0.681500000000     0          
O2       O      0.457530000000     0.600910000000     0.596400000000     0          
O3       O      0.505490000000     0.914080000000     0.787200000000     0          
O4       O      0.453190000000     0.903320000000     0.888000000000     0          
O7       O      0.527210000000     0.478400000000     0.633800000000     0          
O10      O      0.438910000000     0.487850000000     0.511900000000     0          
C1       C      0.484870000000     0.613290000000     0.654500000000     0          
C2       C      0.484320000000     0.654850000000     0.678200000000     0          
C3       C      0.512540000000     0.671730000000     0.739700000000     0          
H1       H      0.532700000000     0.656700000000     0.767500000000     0          
C4       C      0.481720000000     0.732700000000     0.719800000000     0          
C5       C      0.454820000000     0.676920000000     0.637600000000     0          
H2       H      0.435500000000     0.665400000000     0.595600000000     0          
C8       C      0.453510000000     0.715830000000     0.658400000000     0          
C9       C      0.477190000000     0.893300000000     0.821500000000     0          
C10      C      0.479380000000     0.851720000000     0.792600000000     0          
C11      C      0.505140000000     0.838180000000     0.718000000000     0          
H7       H      0.522100000000     0.855300000000     0.683700000000     0          
C12      C      0.506150000000     0.799510000000     0.693700000000     0          
C13      C      0.481390000000     0.774400000000     0.744000000000     0          
C14      C      0.455630000000     0.787970000000     0.818500000000     0          
H8       H      0.438700000000     0.770800000000     0.852900000000     0          
C15      C      0.454610000000     0.826630000000     0.842800000000     0          
H9       H      0.437000000000     0.835900000000     0.893700000000     0          
C16      C      0.535400000000     0.785300000000     0.609600000000     0          
H10      H      0.560300000000     0.781600000000     0.643500000000     0          
H11      H      0.538000000000     0.803600000000     0.551600000000     0          
H12      H      0.526200000000     0.760800000000     0.581900000000     0          
C19?     C      0.510500000000     0.709600000000     0.769700000000     0          
H14?     H      0.527300000000     0.719900000000     0.821100000000     0          
C21?     C      0.424600000000     0.742600000000     0.597100000000     0          
H15?     H      0.428600000000     0.769700000000     0.612200000000     0          
H16?     H      0.399500000000     0.734800000000     0.623000000000     0          
H17?     H      0.426000000000     0.738400000000     0.520700000000     0          
Zr1      Zr     0.538030000000     0.538030000000     0.628390000000     0          
Zr2      Zr     0.467860000000     0.467860000000     0.651830000000     0          
O5       O      0.528850000000     0.528850000000     0.799100000000     0          
O6       O      0.483910000000     0.483910000000     0.813300000000     0          
C17      C      0.507310000000     0.507310000000     0.853500000000     0          
C18      C      0.510340000000     0.510340000000     0.966900000000     0          
H13      H      0.528100000000     0.528100000000     0.995400000000     0          
Zr3      Zr     0.549690000000     0.450310000000     0.500000000000     0          
O1       O      0.905500000000     0.513660000000     0.181500000000     0          
O2       O      0.899090000000     0.457530000000     0.096400000000     0          
O3       O      0.585920000000     0.505490000000     0.287200000000     0          
O4       O      0.596680000000     0.453190000000     0.388000000000     0          
O7       O      0.021600000000     0.527210000000     0.133800000000     0          
O10      O      0.012150000000     0.438910000000     0.011900000000     0          
C1       C      0.886710000000     0.484870000000     0.154500000000     0          
C2       C      0.845150000000     0.484320000000     0.178200000000     0          
C3       C      0.828270000000     0.512540000000     0.239700000000     0          
H1       H      0.843300000000     0.532700000000     0.267500000000     0          
C4       C      0.767300000000     0.481720000000     0.219800000000     0          
C5       C      0.823080000000     0.454820000000     0.137600000000     0          
H2       H      0.834600000000     0.435500000000     0.095600000000     0          
C8       C      0.784170000000     0.453510000000     0.158400000000     0          
C9       C      0.606700000000     0.477190000000     0.321500000000     0          
C10      C      0.648280000000     0.479380000000     0.292600000000     0          
C11      C      0.661820000000     0.505140000000     0.218000000000     0          
H7       H      0.644700000000     0.522100000000     0.183700000000     0          
C12      C      0.700490000000     0.506150000000     0.193700000000     0          
C13      C      0.725600000000     0.481390000000     0.244000000000     0          
C14      C      0.712030000000     0.455630000000     0.318500000000     0          
H8       H      0.729200000000     0.438700000000     0.352900000000     0          
C15      C      0.673370000000     0.454610000000     0.342800000000     0          
H9       H      0.664100000000     0.437000000000     0.393700000000     0          
C16      C      0.714700000000     0.535400000000     0.109600000000     0          
H10      H      0.718400000000     0.560300000000     0.143500000000     0          
H11      H      0.696400000000     0.538000000000     0.051600000000     0          
H12      H      0.739200000000     0.526200000000     0.081900000000     0          
C19?     C      0.790400000000     0.510500000000     0.269700000000     0          
H14?     H      0.780100000000     0.527300000000     0.321100000000     0          
C21?     C      0.757400000000     0.424600000000     0.097100000000     0          
H15?     H      0.730300000000     0.428600000000     0.112200000000     0          
H16?     H      0.765200000000     0.399500000000     0.123000000000     0          
H17?     H      0.761600000000     0.426000000000     0.020700000000     0          
Zr1      Zr     0.961970000000     0.538030000000     0.128390000000     0          
Zr2      Zr     0.032140000000     0.467860000000     0.151830000000     0          
O5       O      0.971150000000     0.528850000000     0.299100000000     0          
O6       O      0.016090000000     0.483910000000     0.313300000000     0          
C17      C      0.992690000000     0.507310000000     0.353500000000     0          
C18      C      0.989660000000     0.510340000000     0.466900000000     0          
H13      H      0.971900000000     0.528100000000     0.495400000000     0          
Zr3      Zr     0.049690000000     0.549690000000     0.000000000000     0          
O1       O      0.986340000000     0.905500000000     0.681500000000     0          
O2       O      0.042470000000     0.899090000000     0.596400000000     0          
O3       O      0.994510000000     0.585920000000     0.787200000000     0          
O4       O      0.046810000000     0.596680000000     0.888000000000     0          
O7       O      0.972790000000     0.021600000000     0.633800000000     0          
O10      O      0.061090000000     0.012150000000     0.511900000000     0          
C1       C      0.015130000000     0.886710000000     0.654500000000     0          
C2       C      0.015680000000     0.845150000000     0.678200000000     0          
C3       C      0.987460000000     0.828270000000     0.739700000000     0          
H1       H      0.967300000000     0.843300000000     0.767500000000     0          
C4       C      0.018280000000     0.767300000000     0.719800000000     0          
C5       C      0.045180000000     0.823080000000     0.637600000000     0          
H2       H      0.064500000000     0.834600000000     0.595600000000     0          
C8       C      0.046490000000     0.784170000000     0.658400000000     0          
C9       C      0.022810000000     0.606700000000     0.821500000000     0          
C10      C      0.020620000000     0.648280000000     0.792600000000     0          
C11      C      0.994860000000     0.661820000000     0.718000000000     0          
H7       H      0.977900000000     0.644700000000     0.683700000000     0          
C12      C      0.993850000000     0.700490000000     0.693700000000     0          
C13      C      0.018610000000     0.725600000000     0.744000000000     0          
C14      C      0.044370000000     0.712030000000     0.818500000000     0          
H8       H      0.061300000000     0.729200000000     0.852900000000     0          
C15      C      0.045390000000     0.673370000000     0.842800000000     0          
H9       H      0.063000000000     0.664100000000     0.893700000000     0          
C16      C      0.964600000000     0.714700000000     0.609600000000     0          
H10      H      0.939700000000     0.718400000000     0.643500000000     0          
H11      H      0.962000000000     0.696400000000     0.551600000000     0          
H12      H      0.973800000000     0.739200000000     0.581900000000     0          
C19?     C      0.989500000000     0.790400000000     0.769700000000     0          
H14?     H      0.972700000000     0.780100000000     0.821100000000     0          
C21?     C      0.075400000000     0.757400000000     0.597100000000     0          
H15?     H      0.071400000000     0.730300000000     0.612200000000     0          
H16?     H      0.100500000000     0.765200000000     0.623000000000     0          
H17?     H      0.074000000000     0.761600000000     0.520700000000     0          
Zr1      Zr     0.961970000000     0.961970000000     0.628390000000     0          
Zr2      Zr     0.032140000000     0.032140000000     0.651830000000     0          
O5       O      0.971150000000     0.971150000000     0.799100000000     0          
O6       O      0.016090000000     0.016090000000     0.813300000000     0          
C17      C      0.992690000000     0.992690000000     0.853500000000     0          
C18      C      0.989660000000     0.989660000000     0.966900000000     0          
H13      H      0.971900000000     0.971900000000     0.995400000000     0          
Zr3      Zr     0.950310000000     0.049690000000     0.500000000000     0          
O1       O      0.594500000000     0.986340000000     0.181500000000     0          
O2       O      0.600910000000     0.042470000000     0.096400000000     0          
O3       O      0.914080000000     0.994510000000     0.287200000000     0          
O4       O      0.903320000000     0.046810000000     0.388000000000     0          
O7       O      0.478400000000     0.972790000000     0.133800000000     0          
O10      O      0.487850000000     0.061090000000     0.011900000000     0          
C1       C      0.613290000000     0.015130000000     0.154500000000     0          
C2       C      0.654850000000     0.015680000000     0.178200000000     0          
C3       C      0.671730000000     0.987460000000     0.239700000000     0          
H1       H      0.656700000000     0.967300000000     0.267500000000     0          
C4       C      0.732700000000     0.018280000000     0.219800000000     0          
C5       C      0.676920000000     0.045180000000     0.137600000000     0          
H2       H      0.665400000000     0.064500000000     0.095600000000     0          
C8       C      0.715830000000     0.046490000000     0.158400000000     0          
C9       C      0.893300000000     0.022810000000     0.321500000000     0          
C10      C      0.851720000000     0.020620000000     0.292600000000     0          
C11      C      0.838180000000     0.994860000000     0.218000000000     0          
H7       H      0.855300000000     0.977900000000     0.183700000000     0          
C12      C      0.799510000000     0.993850000000     0.193700000000     0          
C13      C      0.774400000000     0.018610000000     0.244000000000     0          
C14      C      0.787970000000     0.044370000000     0.318500000000     0          
H8       H      0.770800000000     0.061300000000     0.352900000000     0          
C15      C      0.826630000000     0.045390000000     0.342800000000     0          
H9       H      0.835900000000     0.063000000000     0.393700000000     0          
C16      C      0.785300000000     0.964600000000     0.109600000000     0          
H10      H      0.781600000000     0.939700000000     0.143500000000     0          
H11      H      0.803600000000     0.962000000000     0.051600000000     0          
H12      H      0.760800000000     0.973800000000     0.081900000000     0          
C19?     C      0.709600000000     0.989500000000     0.269700000000     0          
H14?     H      0.719900000000     0.972700000000     0.321100000000     0          
C21?     C      0.742600000000     0.075400000000     0.097100000000     0          
H15?     H      0.769700000000     0.071400000000     0.112200000000     0          
H16?     H      0.734800000000     0.100500000000     0.123000000000     0          
H17?     H      0.738400000000     0.074000000000     0.020700000000     0          
Zr1      Zr     0.538030000000     0.961970000000     0.128390000000     0          
Zr2      Zr     0.467860000000     0.032140000000     0.151830000000     0          
O5       O      0.528850000000     0.971150000000     0.299100000000     0          
O6       O      0.483910000000     0.016090000000     0.313300000000     0          
C17      C      0.507310000000     0.992690000000     0.353500000000     0          
C18      C      0.510340000000     0.989660000000     0.466900000000     0          
H13      H      0.528100000000     0.971900000000     0.495400000000     0          
Zr3      Zr     0.450310000000     0.950310000000     0.000000000000     0          
O1       O      0.013660000000     0.405500000000     0.818500000000     0          
O2       O      0.957530000000     0.399090000000     0.903600000000     0          
O3       O      0.005490000000     0.085920000000     0.712800000000     0          
O4       O      0.953190000000     0.096680000000     0.612000000000     0          
O7       O      0.027210000000     0.521600000000     0.866200000000     0          
O10      O      0.938910000000     0.512150000000     0.988100000000     0          
C1       C      0.984870000000     0.386710000000     0.845500000000     0          
C2       C      0.984320000000     0.345150000000     0.821800000000     0          
C3       C      0.012540000000     0.328270000000     0.760300000000     0          
H1       H      0.032700000000     0.343300000000     0.732500000000     0          
C4       C      0.981720000000     0.267300000000     0.780200000000     0          
C5       C      0.954820000000     0.323080000000     0.862400000000     0          
H2       H      0.935500000000     0.334600000000     0.904400000000     0          
C8       C      0.953510000000     0.284170000000     0.841600000000     0          
C9       C      0.977190000000     0.106700000000     0.678500000000     0          
C10      C      0.979380000000     0.148280000000     0.707400000000     0          
C11      C      0.005140000000     0.161820000000     0.782000000000     0          
H7       H      0.022100000000     0.144700000000     0.816300000000     0          
C12      C      0.006150000000     0.200490000000     0.806300000000     0          
C13      C      0.981390000000     0.225600000000     0.756000000000     0          
C14      C      0.955630000000     0.212030000000     0.681500000000     0          
H8       H      0.938700000000     0.229200000000     0.647100000000     0          
C15      C      0.954610000000     0.173370000000     0.657200000000     0          
H9       H      0.937000000000     0.164100000000     0.606300000000     0          
C16      C      0.035400000000     0.214700000000     0.890400000000     0          
H10      H      0.060300000000     0.218400000000     0.856500000000     0          
H11      H      0.038000000000     0.196400000000     0.948400000000     0          
H12      H      0.026200000000     0.239200000000     0.918100000000     0          
C19?     C      0.010500000000     0.290400000000     0.730300000000     0          
H14?     H      0.027300000000     0.280100000000     0.678900000000     0          
C21?     C      0.924600000000     0.257400000000     0.902900000000     0          
H15?     H      0.928600000000     0.230300000000     0.887800000000     0          
H16?     H      0.899500000000     0.265200000000     0.877000000000     0          
H17?     H      0.926000000000     0.261600000000     0.979300000000     0          
Zr1      Zr     0.038030000000     0.461970000000     0.871610000000     0          
Zr2      Zr     0.967860000000     0.532140000000     0.848170000000     0          
O5       O      0.028850000000     0.471150000000     0.700900000000     0          
O6       O      0.983910000000     0.516090000000     0.686700000000     0          
C17      C      0.007310000000     0.492690000000     0.646500000000     0          
C18      C      0.010340000000     0.489660000000     0.533100000000     0          
H13      H      0.028100000000     0.471900000000     0.504600000000     0          
O1       O      0.094500000000     0.013660000000     0.318500000000     0          
O2       O      0.100910000000     0.957530000000     0.403600000000     0          
O3       O      0.414080000000     0.005490000000     0.212800000000     0          
O4       O      0.403320000000     0.953190000000     0.112000000000     0          
O7       O      0.978400000000     0.027210000000     0.366200000000     0          
O10      O      0.987850000000     0.938910000000     0.488100000000     0          
C1       C      0.113290000000     0.984870000000     0.345500000000     0          
C2       C      0.154850000000     0.984320000000     0.321800000000     0          
C3       C      0.171730000000     0.012540000000     0.260300000000     0          
H1       H      0.156700000000     0.032700000000     0.232500000000     0          
C4       C      0.232700000000     0.981720000000     0.280200000000     0          
C5       C      0.176920000000     0.954820000000     0.362400000000     0          
H2       H      0.165400000000     0.935500000000     0.404400000000     0          
C8       C      0.215830000000     0.953510000000     0.341600000000     0          
C9       C      0.393300000000     0.977190000000     0.178500000000     0          
C10      C      0.351720000000     0.979380000000     0.207400000000     0          
C11      C      0.338180000000     0.005140000000     0.282000000000     0          
H7       H      0.355300000000     0.022100000000     0.316300000000     0          
C12      C      0.299510000000     0.006150000000     0.306300000000     0          
C13      C      0.274400000000     0.981390000000     0.256000000000     0          
C14      C      0.287970000000     0.955630000000     0.181500000000     0          
H8       H      0.270800000000     0.938700000000     0.147100000000     0          
C15      C      0.326630000000     0.954610000000     0.157200000000     0          
H9       H      0.335900000000     0.937000000000     0.106300000000     0          
C16      C      0.285300000000     0.035400000000     0.390400000000     0          
H10      H      0.281600000000     0.060300000000     0.356500000000     0          
H11      H      0.303600000000     0.038000000000     0.448400000000     0          
H12      H      0.260800000000     0.026200000000     0.418100000000     0          
C19?     C      0.209600000000     0.010500000000     0.230300000000     0          
H14?     H      0.219900000000     0.027300000000     0.178900000000     0          
C21?     C      0.242600000000     0.924600000000     0.402900000000     0          
H15?     H      0.269700000000     0.928600000000     0.387800000000     0          
H16?     H      0.234800000000     0.899500000000     0.377000000000     0          
H17?     H      0.238400000000     0.926000000000     0.479300000000     0          
Zr1      Zr     0.038030000000     0.038030000000     0.371610000000     0          
Zr2      Zr     0.967860000000     0.967860000000     0.348170000000     0          
O5       O      0.028850000000     0.028850000000     0.200900000000     0          
O6       O      0.983910000000     0.983910000000     0.186700000000     0          
C17      C      0.007310000000     0.007310000000     0.146500000000     0          
C18      C      0.010340000000     0.010340000000     0.033100000000     0          
H13      H      0.028100000000     0.028100000000     0.004600000000     0          
O1       O      0.486340000000     0.094500000000     0.818500000000     0          
O2       O      0.542470000000     0.100910000000     0.903600000000     0          
O3       O      0.494510000000     0.414080000000     0.712800000000     0          
O4       O      0.546810000000     0.403320000000     0.612000000000     0          
O7       O      0.472790000000     0.978400000000     0.866200000000     0          
O10      O      0.561090000000     0.987850000000     0.988100000000     0          
C1       C      0.515130000000     0.113290000000     0.845500000000     0          
C2       C      0.515680000000     0.154850000000     0.821800000000     0          
C3       C      0.487460000000     0.171730000000     0.760300000000     0          
H1       H      0.467300000000     0.156700000000     0.732500000000     0          
C4       C      0.518280000000     0.232700000000     0.780200000000     0          
C5       C      0.545180000000     0.176920000000     0.862400000000     0          
H2       H      0.564500000000     0.165400000000     0.904400000000     0          
C8       C      0.546490000000     0.215830000000     0.841600000000     0          
C9       C      0.522810000000     0.393300000000     0.678500000000     0          
C10      C      0.520620000000     0.351720000000     0.707400000000     0          
C11      C      0.494860000000     0.338180000000     0.782000000000     0          
H7       H      0.477900000000     0.355300000000     0.816300000000     0          
C12      C      0.493850000000     0.299510000000     0.806300000000     0          
C13      C      0.518610000000     0.274400000000     0.756000000000     0          
C14      C      0.544370000000     0.287970000000     0.681500000000     0          
H8       H      0.561300000000     0.270800000000     0.647100000000     0          
C15      C      0.545390000000     0.326630000000     0.657200000000     0          
H9       H      0.563000000000     0.335900000000     0.606300000000     0          
C16      C      0.464600000000     0.285300000000     0.890400000000     0          
H10      H      0.439700000000     0.281600000000     0.856500000000     0          
H11      H      0.462000000000     0.303600000000     0.948400000000     0          
H12      H      0.473800000000     0.260800000000     0.918100000000     0          
C19?     C      0.489500000000     0.209600000000     0.730300000000     0          
H14?     H      0.472700000000     0.219900000000     0.678900000000     0          
C21?     C      0.575400000000     0.242600000000     0.902900000000     0          
H15?     H      0.571400000000     0.269700000000     0.887800000000     0          
H16?     H      0.600500000000     0.234800000000     0.877000000000     0          
H17?     H      0.574000000000     0.238400000000     0.979300000000     0          
Zr1      Zr     0.461970000000     0.038030000000     0.871610000000     0          
Zr2      Zr     0.532140000000     0.967860000000     0.848170000000     0          
O5       O      0.471150000000     0.028850000000     0.700900000000     0          
O6       O      0.516090000000     0.983910000000     0.686700000000     0          
C17      C      0.492690000000     0.007310000000     0.646500000000     0          
C18      C      0.489660000000     0.010340000000     0.533100000000     0          
H13      H      0.471900000000     0.028100000000     0.504600000000     0          
O1       O      0.405500000000     0.486340000000     0.318500000000     0          
O2       O      0.399090000000     0.542470000000     0.403600000000     0          
O3       O      0.085920000000     0.494510000000     0.212800000000     0          
O4       O      0.096680000000     0.546810000000     0.112000000000     0          
O7       O      0.521600000000     0.472790000000     0.366200000000     0          
O10      O      0.512150000000     0.561090000000     0.488100000000     0          
C1       C      0.386710000000     0.515130000000     0.345500000000     0          
C2       C      0.345150000000     0.515680000000     0.321800000000     0          
C3       C      0.328270000000     0.487460000000     0.260300000000     0          
H1       H      0.343300000000     0.467300000000     0.232500000000     0          
C4       C      0.267300000000     0.518280000000     0.280200000000     0          
C5       C      0.323080000000     0.545180000000     0.362400000000     0          
H2       H      0.334600000000     0.564500000000     0.404400000000     0          
C8       C      0.284170000000     0.546490000000     0.341600000000     0          
C9       C      0.106700000000     0.522810000000     0.178500000000     0          
C10      C      0.148280000000     0.520620000000     0.207400000000     0          
C11      C      0.161820000000     0.494860000000     0.282000000000     0          
H7       H      0.144700000000     0.477900000000     0.316300000000     0          
C12      C      0.200490000000     0.493850000000     0.306300000000     0          
C13      C      0.225600000000     0.518610000000     0.256000000000     0          
C14      C      0.212030000000     0.544370000000     0.181500000000     0          
H8       H      0.229200000000     0.561300000000     0.147100000000     0          
C15      C      0.173370000000     0.545390000000     0.157200000000     0          
H9       H      0.164100000000     0.563000000000     0.106300000000     0          
C16      C      0.214700000000     0.464600000000     0.390400000000     0          
H10      H      0.218400000000     0.439700000000     0.356500000000     0          
H11      H      0.196400000000     0.462000000000     0.448400000000     0          
H12      H      0.239200000000     0.473800000000     0.418100000000     0          
C19?     C      0.290400000000     0.489500000000     0.230300000000     0          
H14?     H      0.280100000000     0.472700000000     0.178900000000     0          
C21?     C      0.257400000000     0.575400000000     0.402900000000     0          
H15?     H      0.230300000000     0.571400000000     0.387800000000     0          
H16?     H      0.265200000000     0.600500000000     0.377000000000     0          
H17?     H      0.261600000000     0.574000000000     0.479300000000     0          
Zr1      Zr     0.461970000000     0.461970000000     0.371610000000     0          
Zr2      Zr     0.532140000000     0.532140000000     0.348170000000     0          
O5       O      0.471150000000     0.471150000000     0.200900000000     0          
O6       O      0.516090000000     0.516090000000     0.186700000000     0          
C17      C      0.492690000000     0.492690000000     0.146500000000     0          
C18      C      0.489660000000     0.489660000000     0.033100000000     0          
H13      H      0.471900000000     0.471900000000     0.004600000000     0          
O1       O      0.486340000000     0.405500000000     0.318500000000     0          
O2       O      0.542470000000     0.399090000000     0.403600000000     0          
O3       O      0.494510000000     0.085920000000     0.212800000000     0          
O4       O      0.546810000000     0.096680000000     0.112000000000     0          
O7       O      0.472790000000     0.521600000000     0.366200000000     0          
O10      O      0.561090000000     0.512150000000     0.488100000000     0          
C1       C      0.515130000000     0.386710000000     0.345500000000     0          
C2       C      0.515680000000     0.345150000000     0.321800000000     0          
C3       C      0.487460000000     0.328270000000     0.260300000000     0          
H1       H      0.467300000000     0.343300000000     0.232500000000     0          
C4       C      0.518280000000     0.267300000000     0.280200000000     0          
C5       C      0.545180000000     0.323080000000     0.362400000000     0          
H2       H      0.564500000000     0.334600000000     0.404400000000     0          
C8       C      0.546490000000     0.284170000000     0.341600000000     0          
C9       C      0.522810000000     0.106700000000     0.178500000000     0          
C10      C      0.520620000000     0.148280000000     0.207400000000     0          
C11      C      0.494860000000     0.161820000000     0.282000000000     0          
H7       H      0.477900000000     0.144700000000     0.316300000000     0          
C12      C      0.493850000000     0.200490000000     0.306300000000     0          
C13      C      0.518610000000     0.225600000000     0.256000000000     0          
C14      C      0.544370000000     0.212030000000     0.181500000000     0          
H8       H      0.561300000000     0.229200000000     0.147100000000     0          
C15      C      0.545390000000     0.173370000000     0.157200000000     0          
H9       H      0.563000000000     0.164100000000     0.106300000000     0          
C16      C      0.464600000000     0.214700000000     0.390400000000     0          
H10      H      0.439700000000     0.218400000000     0.356500000000     0          
H11      H      0.462000000000     0.196400000000     0.448400000000     0          
H12      H      0.473800000000     0.239200000000     0.418100000000     0          
C19?     C      0.489500000000     0.290400000000     0.230300000000     0          
H14?     H      0.472700000000     0.280100000000     0.178900000000     0          
C21?     C      0.575400000000     0.257400000000     0.402900000000     0          
H15?     H      0.571400000000     0.230300000000     0.387800000000     0          
H16?     H      0.600500000000     0.265200000000     0.377000000000     0          
H17?     H      0.574000000000     0.261600000000     0.479300000000     0          
Zr3      Zr     0.450310000000     0.549690000000     0.500000000000     0          
O1       O      0.094500000000     0.486340000000     0.818500000000     0          
O2       O      0.100910000000     0.542470000000     0.903600000000     0          
O3       O      0.414080000000     0.494510000000     0.712800000000     0          
O4       O      0.403320000000     0.546810000000     0.612000000000     0          
O7       O      0.978400000000     0.472790000000     0.866200000000     0          
O10      O      0.987850000000     0.561090000000     0.988100000000     0          
C1       C      0.113290000000     0.515130000000     0.845500000000     0          
C2       C      0.154850000000     0.515680000000     0.821800000000     0          
C3       C      0.171730000000     0.487460000000     0.760300000000     0          
H1       H      0.156700000000     0.467300000000     0.732500000000     0          
C4       C      0.232700000000     0.518280000000     0.780200000000     0          
C5       C      0.176920000000     0.545180000000     0.862400000000     0          
H2       H      0.165400000000     0.564500000000     0.904400000000     0          
C8       C      0.215830000000     0.546490000000     0.841600000000     0          
C9       C      0.393300000000     0.522810000000     0.678500000000     0          
C10      C      0.351720000000     0.520620000000     0.707400000000     0          
C11      C      0.338180000000     0.494860000000     0.782000000000     0          
H7       H      0.355300000000     0.477900000000     0.816300000000     0          
C12      C      0.299510000000     0.493850000000     0.806300000000     0          
C13      C      0.274400000000     0.518610000000     0.756000000000     0          
C14      C      0.287970000000     0.544370000000     0.681500000000     0          
H8       H      0.270800000000     0.561300000000     0.647100000000     0          
C15      C      0.326630000000     0.545390000000     0.657200000000     0          
H9       H      0.335900000000     0.563000000000     0.606300000000     0          
C16      C      0.285300000000     0.464600000000     0.890400000000     0          
H10      H      0.281600000000     0.439700000000     0.856500000000     0          
H11      H      0.303600000000     0.462000000000     0.948400000000     0          
H12      H      0.260800000000     0.473800000000     0.918100000000     0          
C19?     C      0.209600000000     0.489500000000     0.730300000000     0          
H14?     H      0.219900000000     0.472700000000     0.678900000000     0          
C21?     C      0.242600000000     0.575400000000     0.902900000000     0          
H15?     H      0.269700000000     0.571400000000     0.887800000000     0          
H16?     H      0.234800000000     0.600500000000     0.877000000000     0          
H17?     H      0.238400000000     0.574000000000     0.979300000000     0          
Zr3      Zr     0.950310000000     0.450310000000     0.000000000000     0          
O1       O      0.013660000000     0.094500000000     0.318500000000     0          
O2       O      0.957530000000     0.100910000000     0.403600000000     0          
O3       O      0.005490000000     0.414080000000     0.212800000000     0          
O4       O      0.953190000000     0.403320000000     0.112000000000     0          
O7       O      0.027210000000     0.978400000000     0.366200000000     0          
O10      O      0.938910000000     0.987850000000     0.488100000000     0          
C1       C      0.984870000000     0.113290000000     0.345500000000     0          
C2       C      0.984320000000     0.154850000000     0.321800000000     0          
C3       C      0.012540000000     0.171730000000     0.260300000000     0          
H1       H      0.032700000000     0.156700000000     0.232500000000     0          
C4       C      0.981720000000     0.232700000000     0.280200000000     0          
C5       C      0.954820000000     0.176920000000     0.362400000000     0          
H2       H      0.935500000000     0.165400000000     0.404400000000     0          
C8       C      0.953510000000     0.215830000000     0.341600000000     0          
C9       C      0.977190000000     0.393300000000     0.178500000000     0          
C10      C      0.979380000000     0.351720000000     0.207400000000     0          
C11      C      0.005140000000     0.338180000000     0.282000000000     0          
H7       H      0.022100000000     0.355300000000     0.316300000000     0          
C12      C      0.006150000000     0.299510000000     0.306300000000     0          
C13      C      0.981390000000     0.274400000000     0.256000000000     0          
C14      C      0.955630000000     0.287970000000     0.181500000000     0          
H8       H      0.938700000000     0.270800000000     0.147100000000     0          
C15      C      0.954610000000     0.326630000000     0.157200000000     0          
H9       H      0.937000000000     0.335900000000     0.106300000000     0          
C16      C      0.035400000000     0.285300000000     0.390400000000     0          
H10      H      0.060300000000     0.281600000000     0.356500000000     0          
H11      H      0.038000000000     0.303600000000     0.448400000000     0          
H12      H      0.026200000000     0.260800000000     0.418100000000     0          
C19?     C      0.010500000000     0.209600000000     0.230300000000     0          
H14?     H      0.027300000000     0.219900000000     0.178900000000     0          
C21?     C      0.924600000000     0.242600000000     0.402900000000     0          
H15?     H      0.928600000000     0.269700000000     0.387800000000     0          
H16?     H      0.899500000000     0.234800000000     0.377000000000     0          
H17?     H      0.926000000000     0.238400000000     0.479300000000     0          
Zr3      Zr     0.049690000000     0.950310000000     0.500000000000     0          
O1       O      0.405500000000     0.013660000000     0.818500000000     0          
O2       O      0.399090000000     0.957530000000     0.903600000000     0          
O3       O      0.085920000000     0.005490000000     0.712800000000     0          
O4       O      0.096680000000     0.953190000000     0.612000000000     0          
O7       O      0.521600000000     0.027210000000     0.866200000000     0          
O10      O      0.512150000000     0.938910000000     0.988100000000     0          
C1       C      0.386710000000     0.984870000000     0.845500000000     0          
C2       C      0.345150000000     0.984320000000     0.821800000000     0          
C3       C      0.328270000000     0.012540000000     0.760300000000     0          
H1       H      0.343300000000     0.032700000000     0.732500000000     0          
C4       C      0.267300000000     0.981720000000     0.780200000000     0          
C5       C      0.323080000000     0.954820000000     0.862400000000     0          
H2       H      0.334600000000     0.935500000000     0.904400000000     0          
C8       C      0.284170000000     0.953510000000     0.841600000000     0          
C9       C      0.106700000000     0.977190000000     0.678500000000     0          
C10      C      0.148280000000     0.979380000000     0.707400000000     0          
C11      C      0.161820000000     0.005140000000     0.782000000000     0          
H7       H      0.144700000000     0.022100000000     0.816300000000     0          
C12      C      0.200490000000     0.006150000000     0.806300000000     0          
C13      C      0.225600000000     0.981390000000     0.756000000000     0          
C14      C      0.212030000000     0.955630000000     0.681500000000     0          
H8       H      0.229200000000     0.938700000000     0.647100000000     0          
C15      C      0.173370000000     0.954610000000     0.657200000000     0          
H9       H      0.164100000000     0.937000000000     0.606300000000     0          
C16      C      0.214700000000     0.035400000000     0.890400000000     0          
H10      H      0.218400000000     0.060300000000     0.856500000000     0          
H11      H      0.196400000000     0.038000000000     0.948400000000     0          
H12      H      0.239200000000     0.026200000000     0.918100000000     0          
C19?     C      0.290400000000     0.010500000000     0.730300000000     0          
H14?     H      0.280100000000     0.027300000000     0.678900000000     0          
C21?     C      0.257400000000     0.924600000000     0.902900000000     0          
H15?     H      0.230300000000     0.928600000000     0.887800000000     0          
H16?     H      0.265200000000     0.899500000000     0.877000000000     0          
H17?     H      0.261600000000     0.926000000000     0.979300000000     0          
Zr3      Zr     0.549690000000     0.049690000000     0.000000000000     0          
O1       O      0.986340000000     0.594500000000     0.181500000000     0          
O2       O      0.042470000000     0.600910000000     0.096400000000     0          
O3       O      0.994510000000     0.914080000000     0.287200000000     0          
O4       O      0.046810000000     0.903320000000     0.388000000000     0          
O7       O      0.972790000000     0.478400000000     0.133800000000     0          
O10      O      0.061090000000     0.487850000000     0.011900000000     0          
C1       C      0.015130000000     0.613290000000     0.154500000000     0          
C2       C      0.015680000000     0.654850000000     0.178200000000     0          
C3       C      0.987460000000     0.671730000000     0.239700000000     0          
H1       H      0.967300000000     0.656700000000     0.267500000000     0          
C4       C      0.018280000000     0.732700000000     0.219800000000     0          
C5       C      0.045180000000     0.676920000000     0.137600000000     0          
H2       H      0.064500000000     0.665400000000     0.095600000000     0          
C8       C      0.046490000000     0.715830000000     0.158400000000     0          
C9       C      0.022810000000     0.893300000000     0.321500000000     0          
C10      C      0.020620000000     0.851720000000     0.292600000000     0          
C11      C      0.994860000000     0.838180000000     0.218000000000     0          
H7       H      0.977900000000     0.855300000000     0.183700000000     0          
C12      C      0.993850000000     0.799510000000     0.193700000000     0          
C13      C      0.018610000000     0.774400000000     0.244000000000     0          
C14      C      0.044370000000     0.787970000000     0.318500000000     0          
H8       H      0.061300000000     0.770800000000     0.352900000000     0          
C15      C      0.045390000000     0.826630000000     0.342800000000     0          
H9       H      0.063000000000     0.835900000000     0.393700000000     0          
C16      C      0.964600000000     0.785300000000     0.109600000000     0          
H10      H      0.939700000000     0.781600000000     0.143500000000     0          
H11      H      0.962000000000     0.803600000000     0.051600000000     0          
H12      H      0.973800000000     0.760800000000     0.081900000000     0          
C19?     C      0.989500000000     0.709600000000     0.269700000000     0          
H14?     H      0.972700000000     0.719900000000     0.321100000000     0          
C21?     C      0.075400000000     0.742600000000     0.097100000000     0          
H15?     H      0.071400000000     0.769700000000     0.112200000000     0          
H16?     H      0.100500000000     0.734800000000     0.123000000000     0          
H17?     H      0.074000000000     0.738400000000     0.020700000000     0          
O1       O      0.905500000000     0.986340000000     0.681500000000     0          
O2       O      0.899090000000     0.042470000000     0.596400000000     0          
O3       O      0.585920000000     0.994510000000     0.787200000000     0          
O4       O      0.596680000000     0.046810000000     0.888000000000     0          
O7       O      0.021600000000     0.972790000000     0.633800000000     0          
O10      O      0.012150000000     0.061090000000     0.511900000000     0          
C1       C      0.886710000000     0.015130000000     0.654500000000     0          
C2       C      0.845150000000     0.015680000000     0.678200000000     0          
C3       C      0.828270000000     0.987460000000     0.739700000000     0          
H1       H      0.843300000000     0.967300000000     0.767500000000     0          
C4       C      0.767300000000     0.018280000000     0.719800000000     0          
C5       C      0.823080000000     0.045180000000     0.637600000000     0          
H2       H      0.834600000000     0.064500000000     0.595600000000     0          
C8       C      0.784170000000     0.046490000000     0.658400000000     0          
C9       C      0.606700000000     0.022810000000     0.821500000000     0          
C10      C      0.648280000000     0.020620000000     0.792600000000     0          
C11      C      0.661820000000     0.994860000000     0.718000000000     0          
H7       H      0.644700000000     0.977900000000     0.683700000000     0          
C12      C      0.700490000000     0.993850000000     0.693700000000     0          
C13      C      0.725600000000     0.018610000000     0.744000000000     0          
C14      C      0.712030000000     0.044370000000     0.818500000000     0          
H8       H      0.729200000000     0.061300000000     0.852900000000     0          
C15      C      0.673370000000     0.045390000000     0.842800000000     0          
H9       H      0.664100000000     0.063000000000     0.893700000000     0          
C16      C      0.714700000000     0.964600000000     0.609600000000     0          
H10      H      0.718400000000     0.939700000000     0.643500000000     0          
H11      H      0.696400000000     0.962000000000     0.551600000000     0          
H12      H      0.739200000000     0.973800000000     0.581900000000     0          
C19?     C      0.790400000000     0.989500000000     0.769700000000     0          
H14?     H      0.780100000000     0.972700000000     0.821100000000     0          
C21?     C      0.757400000000     0.075400000000     0.597100000000     0          
H15?     H      0.730300000000     0.071400000000     0.612200000000     0          
H16?     H      0.765200000000     0.100500000000     0.623000000000     0          
H17?     H      0.761600000000     0.074000000000     0.520700000000     0          
O1       O      0.513660000000     0.905500000000     0.181500000000     0          
O2       O      0.457530000000     0.899090000000     0.096400000000     0          
O3       O      0.505490000000     0.585920000000     0.287200000000     0          
O4       O      0.453190000000     0.596680000000     0.388000000000     0          
O7       O      0.527210000000     0.021600000000     0.133800000000     0          
O10      O      0.438910000000     0.012150000000     0.011900000000     0          
C1       C      0.484870000000     0.886710000000     0.154500000000     0          
C2       C      0.484320000000     0.845150000000     0.178200000000     0          
C3       C      0.512540000000     0.828270000000     0.239700000000     0          
H1       H      0.532700000000     0.843300000000     0.267500000000     0          
C4       C      0.481720000000     0.767300000000     0.219800000000     0          
C5       C      0.454820000000     0.823080000000     0.137600000000     0          
H2       H      0.435500000000     0.834600000000     0.095600000000     0          
C8       C      0.453510000000     0.784170000000     0.158400000000     0          
C9       C      0.477190000000     0.606700000000     0.321500000000     0          
C10      C      0.479380000000     0.648280000000     0.292600000000     0          
C11      C      0.505140000000     0.661820000000     0.218000000000     0          
H7       H      0.522100000000     0.644700000000     0.183700000000     0          
C12      C      0.506150000000     0.700490000000     0.193700000000     0          
C13      C      0.481390000000     0.725600000000     0.244000000000     0          
C14      C      0.455630000000     0.712030000000     0.318500000000     0          
H8       H      0.438700000000     0.729200000000     0.352900000000     0          
C15      C      0.454610000000     0.673370000000     0.342800000000     0          
H9       H      0.437000000000     0.664100000000     0.393700000000     0          
C16      C      0.535400000000     0.714700000000     0.109600000000     0          
H10      H      0.560300000000     0.718400000000     0.143500000000     0          
H11      H      0.538000000000     0.696400000000     0.051600000000     0          
H12      H      0.526200000000     0.739200000000     0.081900000000     0          
C19?     C      0.510500000000     0.790400000000     0.269700000000     0          
H14?     H      0.527300000000     0.780100000000     0.321100000000     0          
C21?     C      0.424600000000     0.757400000000     0.097100000000     0          
H15?     H      0.428600000000     0.730300000000     0.112200000000     0          
H16?     H      0.399500000000     0.765200000000     0.123000000000     0          
H17?     H      0.426000000000     0.761600000000     0.020700000000     0          
O1       O      0.594500000000     0.513660000000     0.681500000000     0          
O2       O      0.600910000000     0.457530000000     0.596400000000     0          
O3       O      0.914080000000     0.505490000000     0.787200000000     0          
O4       O      0.903320000000     0.453190000000     0.888000000000     0          
O7       O      0.478400000000     0.527210000000     0.633800000000     0          
O10      O      0.487850000000     0.438910000000     0.511900000000     0          
C1       C      0.613290000000     0.484870000000     0.654500000000     0          
C2       C      0.654850000000     0.484320000000     0.678200000000     0          
C3       C      0.671730000000     0.512540000000     0.739700000000     0          
H1       H      0.656700000000     0.532700000000     0.767500000000     0          
C4       C      0.732700000000     0.481720000000     0.719800000000     0          
C5       C      0.676920000000     0.454820000000     0.637600000000     0          
H2       H      0.665400000000     0.435500000000     0.595600000000     0          
C8       C      0.715830000000     0.453510000000     0.658400000000     0          
C9       C      0.893300000000     0.477190000000     0.821500000000     0          
C10      C      0.851720000000     0.479380000000     0.792600000000     0          
C11      C      0.838180000000     0.505140000000     0.718000000000     0          
H7       H      0.855300000000     0.522100000000     0.683700000000     0          
C12      C      0.799510000000     0.506150000000     0.693700000000     0          
C13      C      0.774400000000     0.481390000000     0.744000000000     0          
C14      C      0.787970000000     0.455630000000     0.818500000000     0          
H8       H      0.770800000000     0.438700000000     0.852900000000     0          
C15      C      0.826630000000     0.454610000000     0.842800000000     0          
H9       H      0.835900000000     0.437000000000     0.893700000000     0          
C16      C      0.785300000000     0.535400000000     0.609600000000     0          
H10      H      0.781600000000     0.560300000000     0.643500000000     0          
H11      H      0.803600000000     0.538000000000     0.551600000000     0          
H12      H      0.760800000000     0.526200000000     0.581900000000     0          
C19?     C      0.709600000000     0.510500000000     0.769700000000     0          
H14?     H      0.719900000000     0.527300000000     0.821100000000     0          
C21?     C      0.742600000000     0.424600000000     0.597100000000     0          
H15?     H      0.769700000000     0.428600000000     0.612200000000     0          
H16?     H      0.734800000000     0.399500000000     0.623000000000     0          
H17?     H      0.738400000000     0.426000000000     0.520700000000     0          


