data_ESEBOV

_audit_creation_method RASPA-1.0
_audit_creation_date 2020-11-2
_audit_author_name 'Rocio Bueno-Perez'

_cell_length_a    28.331
_cell_length_b    28.331
_cell_length_c    28.331
_cell_angle_alpha 90
_cell_angle_beta  90
_cell_angle_gamma 90
_cell_volume      22739.8

_symmetry_cell_setting          triclinic
_symmetry_space_group_name_Hall 'P 1'
_symmetry_space_group_name_H-M  'P 1'
_symmetry_Int_Tables_number     1

_symmetry_equiv_pos_as_xyz 'x,y,z'

loop_
_atom_site_label
_atom_site_type_symbol
_atom_site_fract_x
_atom_site_fract_y
_atom_site_fract_z
_atom_site_charge
H1       H      0.402600000000     0.716500000000     0.761300000000     0          
H2       H      0.415100000000     0.259700000000     0.287100000000     0          
H3       H      0.402600000000     0.283500000000     0.238700000000     0          
H4       H      0.383100000000     0.233100000000     0.250600000000     0          
H5       H      0.584900000000     0.740300000000     0.287100000000     0          
H6       H      0.597400000000     0.716500000000     0.238700000000     0          
H7       H      0.616900000000     0.766900000000     0.250600000000     0          
H8       H      0.712900000000     0.415100000000     0.740300000000     0          
H9       H      0.761300000000     0.402600000000     0.716500000000     0          
H10      H      0.749400000000     0.383100000000     0.766900000000     0          
H11      H      0.740300000000     0.712900000000     0.415100000000     0          
H12      H      0.716500000000     0.761300000000     0.402600000000     0          
H13      H      0.766900000000     0.749400000000     0.383100000000     0          
H14      H      0.259700000000     0.287100000000     0.415100000000     0          
H15      H      0.283500000000     0.238700000000     0.402600000000     0          
H16      H      0.233100000000     0.250600000000     0.383100000000     0          
H17      H      0.740300000000     0.287100000000     0.584900000000     0          
H18      H      0.716500000000     0.238700000000     0.597400000000     0          
H19      H      0.766900000000     0.250600000000     0.616900000000     0          
H20      H      0.259700000000     0.415100000000     0.712900000000     0          
H21      H      0.283500000000     0.402600000000     0.761300000000     0          
H22      H      0.233100000000     0.383100000000     0.749400000000     0          
H23      H      0.740300000000     0.584900000000     0.712900000000     0          
H24      H      0.716500000000     0.597400000000     0.761300000000     0          
H25      H      0.766900000000     0.616900000000     0.749400000000     0          
H26      H      0.415100000000     0.712900000000     0.259700000000     0          
H27      H      0.402600000000     0.761300000000     0.283500000000     0          
H28      H      0.383100000000     0.749400000000     0.233100000000     0          
H29      H      0.415100000000     0.287100000000     0.740300000000     0          
H30      H      0.402600000000     0.238700000000     0.716500000000     0          
H31      H      0.383100000000     0.250600000000     0.766900000000     0          
H32      H      0.712900000000     0.259700000000     0.415100000000     0          
H33      H      0.761300000000     0.283500000000     0.402600000000     0          
H34      H      0.749400000000     0.233100000000     0.383100000000     0          
H35      H      0.287100000000     0.259700000000     0.584900000000     0          
H36      H      0.238700000000     0.283500000000     0.597400000000     0          
H37      H      0.250600000000     0.233100000000     0.616900000000     0          
H38      H      0.287100000000     0.740300000000     0.415100000000     0          
H39      H      0.238700000000     0.716500000000     0.402600000000     0          
H40      H      0.250600000000     0.766900000000     0.383100000000     0          
H41      H      0.584900000000     0.259700000000     0.287100000000     0          
H42      H      0.597400000000     0.283500000000     0.238700000000     0          
H43      H      0.616900000000     0.233100000000     0.250600000000     0          
H44      H      0.584900000000     0.740300000000     0.712900000000     0          
H45      H      0.597400000000     0.716500000000     0.761300000000     0          
H46      H      0.616900000000     0.766900000000     0.749400000000     0          
H47      H      0.287100000000     0.584900000000     0.259700000000     0          
H48      H      0.238700000000     0.597400000000     0.283500000000     0          
H49      H      0.250600000000     0.616900000000     0.233100000000     0          
H50      H      0.712900000000     0.415100000000     0.259700000000     0          
H51      H      0.761300000000     0.402600000000     0.283500000000     0          
H52      H      0.749400000000     0.383100000000     0.233100000000     0          
H53      H      0.740300000000     0.712900000000     0.584900000000     0          
H54      H      0.716500000000     0.761300000000     0.597400000000     0          
H55      H      0.766900000000     0.749400000000     0.616900000000     0          
H56      H      0.259700000000     0.584900000000     0.712900000000     0          
H57      H      0.283500000000     0.597400000000     0.761300000000     0          
H58      H      0.233100000000     0.616900000000     0.749400000000     0          
H59      H      0.740300000000     0.584900000000     0.287100000000     0          
H60      H      0.716500000000     0.597400000000     0.238700000000     0          
H61      H      0.766900000000     0.616900000000     0.250600000000     0          
H62      H      0.259700000000     0.415100000000     0.287100000000     0          
H63      H      0.283500000000     0.402600000000     0.238700000000     0          
H64      H      0.233100000000     0.383100000000     0.250600000000     0          
H65      H      0.584900000000     0.287100000000     0.740300000000     0          
H66      H      0.597400000000     0.238700000000     0.716500000000     0          
H67      H      0.616900000000     0.250600000000     0.766900000000     0          
H68      H      0.402600000000     0.761300000000     0.716500000000     0          
H69      H      0.383100000000     0.749400000000     0.766900000000     0          
H70      H      0.287100000000     0.740300000000     0.584900000000     0          
H71      H      0.238700000000     0.716500000000     0.597400000000     0          
H72      H      0.250600000000     0.766900000000     0.616900000000     0          
Zr73     Zr     0.500000000000     0.087000000000     0.500000000000     0          
Zr74     Zr     0.500000000000     0.913000000000     0.500000000000     0          
Zr75     Zr     0.500000000000     0.500000000000     0.087000000000     0          
Zr76     Zr     0.500000000000     0.500000000000     0.913000000000     0          
Zr77     Zr     0.087000000000     0.500000000000     0.500000000000     0          
Zr78     Zr     0.913000000000     0.500000000000     0.500000000000     0          
Zr79     Zr     0.437480000000     0.000000000000     0.437480000000     0          
Zr80     Zr     0.562520000000     0.000000000000     0.437480000000     0          
Zr81     Zr     0.562520000000     0.000000000000     0.562520000000     0          
Zr82     Zr     0.437480000000     0.000000000000     0.562520000000     0          
Zr83     Zr     0.437480000000     0.437480000000     0.000000000000     0          
Zr84     Zr     0.437480000000     0.562520000000     0.000000000000     0          
Zr85     Zr     0.562520000000     0.562520000000     0.000000000000     0          
Zr86     Zr     0.562520000000     0.437480000000     0.000000000000     0          
Zr87     Zr     0.000000000000     0.437480000000     0.437480000000     0          
Zr88     Zr     0.000000000000     0.437480000000     0.562520000000     0          
Zr89     Zr     0.000000000000     0.562520000000     0.562520000000     0          
Zr90     Zr     0.000000000000     0.562520000000     0.437480000000     0          
O91      O      0.546240000000     0.126700000000     0.546240000000     0          
O92      O      0.587380000000     0.071200000000     0.587380000000     0          
C93      C      0.576500000000     0.115000000000     0.576500000000     0          
C94      C      0.603300000000     0.151200000000     0.603300000000     0          
C95      C      0.593500000000     0.198400000000     0.593500000000     0          
H96      H      0.570900000000     0.205800000000     0.570900000000     0          
C97      C      0.617100000000     0.235100000000     0.617100000000     0          
H98      H      0.609500000000     0.266100000000     0.609500000000     0          
C99      C      0.650800000000     0.227400000000     0.650800000000     0          
C100     C      0.659900000000     0.181200000000     0.659900000000     0          
H101     H      0.682500000000     0.173900000000     0.682500000000     0          
C102     C      0.637400000000     0.144500000000     0.637400000000     0          
H103     H      0.645600000000     0.113800000000     0.645600000000     0          
C104     C      0.673400000000     0.266700000000     0.673400000000     0          
O105     O      0.453760000000     0.873300000000     0.546240000000     0          
O106     O      0.412620000000     0.928800000000     0.587380000000     0          
C107     C      0.423500000000     0.885000000000     0.576500000000     0          
C108     C      0.396700000000     0.848800000000     0.603300000000     0          
C109     C      0.406500000000     0.801600000000     0.593500000000     0          
H110     H      0.429100000000     0.794200000000     0.570900000000     0          
C111     C      0.382900000000     0.764900000000     0.617100000000     0          
H112     H      0.390500000000     0.733900000000     0.609500000000     0          
C113     C      0.349200000000     0.772600000000     0.650800000000     0          
C114     C      0.340100000000     0.818800000000     0.659900000000     0          
H115     H      0.317500000000     0.826100000000     0.682500000000     0          
C116     C      0.362600000000     0.855500000000     0.637400000000     0          
H117     H      0.354400000000     0.886200000000     0.645600000000     0          
C118     C      0.326600000000     0.733300000000     0.673400000000     0          
O119     O      0.453760000000     0.126700000000     0.453760000000     0          
O120     O      0.412620000000     0.071200000000     0.412620000000     0          
C121     C      0.423500000000     0.115000000000     0.423500000000     0          
C122     C      0.396700000000     0.151200000000     0.396700000000     0          
C123     C      0.406500000000     0.198400000000     0.406500000000     0          
H124     H      0.429100000000     0.205800000000     0.429100000000     0          
C125     C      0.382900000000     0.235100000000     0.382900000000     0          
H126     H      0.390500000000     0.266100000000     0.390500000000     0          
C127     C      0.349200000000     0.227400000000     0.349200000000     0          
C128     C      0.340100000000     0.181200000000     0.340100000000     0          
H129     H      0.317500000000     0.173900000000     0.317500000000     0          
C130     C      0.362600000000     0.144500000000     0.362600000000     0          
H131     H      0.354400000000     0.113800000000     0.354400000000     0          
C132     C      0.326600000000     0.266700000000     0.326600000000     0          
O133     O      0.546240000000     0.873300000000     0.453760000000     0          
O134     O      0.587380000000     0.928800000000     0.412620000000     0          
C135     C      0.576500000000     0.885000000000     0.423500000000     0          
C136     C      0.603300000000     0.848800000000     0.396700000000     0          
C137     C      0.593500000000     0.801600000000     0.406500000000     0          
H138     H      0.570900000000     0.794200000000     0.429100000000     0          
C139     C      0.617100000000     0.764900000000     0.382900000000     0          
H140     H      0.609500000000     0.733900000000     0.390500000000     0          
C141     C      0.650800000000     0.772600000000     0.349200000000     0          
C142     C      0.659900000000     0.818800000000     0.340100000000     0          
H143     H      0.682500000000     0.826100000000     0.317500000000     0          
C144     C      0.637400000000     0.855500000000     0.362600000000     0          
H145     H      0.645600000000     0.886200000000     0.354400000000     0          
C146     C      0.673400000000     0.733300000000     0.326600000000     0          
O147     O      0.546240000000     0.546240000000     0.126700000000     0          
O148     O      0.587380000000     0.587380000000     0.071200000000     0          
C149     C      0.576500000000     0.576500000000     0.115000000000     0          
C150     C      0.603300000000     0.603300000000     0.151200000000     0          
C151     C      0.593500000000     0.593500000000     0.198400000000     0          
H152     H      0.570900000000     0.570900000000     0.205800000000     0          
C153     C      0.617100000000     0.617100000000     0.235100000000     0          
H154     H      0.609500000000     0.609500000000     0.266100000000     0          
C155     C      0.650800000000     0.650800000000     0.227400000000     0          
C156     C      0.659900000000     0.659900000000     0.181200000000     0          
H157     H      0.682500000000     0.682500000000     0.173900000000     0          
C158     C      0.637400000000     0.637400000000     0.144500000000     0          
H159     H      0.645600000000     0.645600000000     0.113800000000     0          
C160     C      0.673400000000     0.673400000000     0.266700000000     0          
O161     O      0.546240000000     0.453760000000     0.873300000000     0          
O162     O      0.587380000000     0.412620000000     0.928800000000     0          
C163     C      0.576500000000     0.423500000000     0.885000000000     0          
C164     C      0.603300000000     0.396700000000     0.848800000000     0          
C165     C      0.593500000000     0.406500000000     0.801600000000     0          
H166     H      0.570900000000     0.429100000000     0.794200000000     0          
C167     C      0.617100000000     0.382900000000     0.764900000000     0          
H168     H      0.609500000000     0.390500000000     0.733900000000     0          
C169     C      0.650800000000     0.349200000000     0.772600000000     0          
C170     C      0.659900000000     0.340100000000     0.818800000000     0          
H171     H      0.682500000000     0.317500000000     0.826100000000     0          
C172     C      0.637400000000     0.362600000000     0.855500000000     0          
H173     H      0.645600000000     0.354400000000     0.886200000000     0          
C174     C      0.673400000000     0.326600000000     0.733300000000     0          
O175     O      0.453760000000     0.453760000000     0.126700000000     0          
O176     O      0.412620000000     0.412620000000     0.071200000000     0          
C177     C      0.423500000000     0.423500000000     0.115000000000     0          
C178     C      0.396700000000     0.396700000000     0.151200000000     0          
C179     C      0.406500000000     0.406500000000     0.198400000000     0          
H180     H      0.429100000000     0.429100000000     0.205800000000     0          
C181     C      0.382900000000     0.382900000000     0.235100000000     0          
H182     H      0.390500000000     0.390500000000     0.266100000000     0          
C183     C      0.349200000000     0.349200000000     0.227400000000     0          
C184     C      0.340100000000     0.340100000000     0.181200000000     0          
H185     H      0.317500000000     0.317500000000     0.173900000000     0          
C186     C      0.362600000000     0.362600000000     0.144500000000     0          
H187     H      0.354400000000     0.354400000000     0.113800000000     0          
C188     C      0.326600000000     0.326600000000     0.266700000000     0          
O189     O      0.453760000000     0.546240000000     0.873300000000     0          
O190     O      0.412620000000     0.587380000000     0.928800000000     0          
C191     C      0.423500000000     0.576500000000     0.885000000000     0          
C192     C      0.396700000000     0.603300000000     0.848800000000     0          
C193     C      0.406500000000     0.593500000000     0.801600000000     0          
H194     H      0.429100000000     0.570900000000     0.794200000000     0          
C195     C      0.382900000000     0.617100000000     0.764900000000     0          
H196     H      0.390500000000     0.609500000000     0.733900000000     0          
C197     C      0.349200000000     0.650800000000     0.772600000000     0          
C198     C      0.340100000000     0.659900000000     0.818800000000     0          
H199     H      0.317500000000     0.682500000000     0.826100000000     0          
C200     C      0.362600000000     0.637400000000     0.855500000000     0          
H201     H      0.354400000000     0.645600000000     0.886200000000     0          
C202     C      0.326600000000     0.673400000000     0.733300000000     0          
O203     O      0.126700000000     0.546240000000     0.546240000000     0          
O204     O      0.071200000000     0.587380000000     0.587380000000     0          
C205     C      0.115000000000     0.576500000000     0.576500000000     0          
C206     C      0.151200000000     0.603300000000     0.603300000000     0          
C207     C      0.198400000000     0.593500000000     0.593500000000     0          
H208     H      0.205800000000     0.570900000000     0.570900000000     0          
C209     C      0.235100000000     0.617100000000     0.617100000000     0          
H210     H      0.266100000000     0.609500000000     0.609500000000     0          
C211     C      0.227400000000     0.650800000000     0.650800000000     0          
C212     C      0.181200000000     0.659900000000     0.659900000000     0          
H213     H      0.173900000000     0.682500000000     0.682500000000     0          
C214     C      0.144500000000     0.637400000000     0.637400000000     0          
H215     H      0.113800000000     0.645600000000     0.645600000000     0          
C216     C      0.266700000000     0.673400000000     0.673400000000     0          
O217     O      0.873300000000     0.546240000000     0.453760000000     0          
O218     O      0.928800000000     0.587380000000     0.412620000000     0          
C219     C      0.885000000000     0.576500000000     0.423500000000     0          
C220     C      0.848800000000     0.603300000000     0.396700000000     0          
C221     C      0.801600000000     0.593500000000     0.406500000000     0          
H222     H      0.794200000000     0.570900000000     0.429100000000     0          
C223     C      0.764900000000     0.617100000000     0.382900000000     0          
H224     H      0.733900000000     0.609500000000     0.390500000000     0          
C225     C      0.772600000000     0.650800000000     0.349200000000     0          
C226     C      0.818800000000     0.659900000000     0.340100000000     0          
H227     H      0.826100000000     0.682500000000     0.317500000000     0          
C228     C      0.855500000000     0.637400000000     0.362600000000     0          
H229     H      0.886200000000     0.645600000000     0.354400000000     0          
C230     C      0.733300000000     0.673400000000     0.326600000000     0          
O231     O      0.126700000000     0.453760000000     0.453760000000     0          
O232     O      0.071200000000     0.412620000000     0.412620000000     0          
C233     C      0.115000000000     0.423500000000     0.423500000000     0          
C234     C      0.151200000000     0.396700000000     0.396700000000     0          
C235     C      0.198400000000     0.406500000000     0.406500000000     0          
H236     H      0.205800000000     0.429100000000     0.429100000000     0          
C237     C      0.235100000000     0.382900000000     0.382900000000     0          
H238     H      0.266100000000     0.390500000000     0.390500000000     0          
C239     C      0.227400000000     0.349200000000     0.349200000000     0          
C240     C      0.181200000000     0.340100000000     0.340100000000     0          
H241     H      0.173900000000     0.317500000000     0.317500000000     0          
C242     C      0.144500000000     0.362600000000     0.362600000000     0          
H243     H      0.113800000000     0.354400000000     0.354400000000     0          
C244     C      0.266700000000     0.326600000000     0.326600000000     0          
O245     O      0.873300000000     0.453760000000     0.546240000000     0          
O246     O      0.928800000000     0.412620000000     0.587380000000     0          
C247     C      0.885000000000     0.423500000000     0.576500000000     0          
C248     C      0.848800000000     0.396700000000     0.603300000000     0          
C249     C      0.801600000000     0.406500000000     0.593500000000     0          
H250     H      0.794200000000     0.429100000000     0.570900000000     0          
C251     C      0.764900000000     0.382900000000     0.617100000000     0          
H252     H      0.733900000000     0.390500000000     0.609500000000     0          
C253     C      0.772600000000     0.349200000000     0.650800000000     0          
C254     C      0.818800000000     0.340100000000     0.659900000000     0          
H255     H      0.826100000000     0.317500000000     0.682500000000     0          
C256     C      0.855500000000     0.362600000000     0.637400000000     0          
H257     H      0.886200000000     0.354400000000     0.645600000000     0          
C258     C      0.733300000000     0.326600000000     0.673400000000     0          
O259     O      0.126700000000     0.546240000000     0.453760000000     0          
O260     O      0.071200000000     0.587380000000     0.412620000000     0          
C261     C      0.115000000000     0.576500000000     0.423500000000     0          
C262     C      0.151200000000     0.603300000000     0.396700000000     0          
C263     C      0.198400000000     0.593500000000     0.406500000000     0          
H264     H      0.205800000000     0.570900000000     0.429100000000     0          
C265     C      0.235100000000     0.617100000000     0.382900000000     0          
H266     H      0.266100000000     0.609500000000     0.390500000000     0          
C267     C      0.227400000000     0.650800000000     0.349200000000     0          
C268     C      0.181200000000     0.659900000000     0.340100000000     0          
H269     H      0.173900000000     0.682500000000     0.317500000000     0          
C270     C      0.144500000000     0.637400000000     0.362600000000     0          
H271     H      0.113800000000     0.645600000000     0.354400000000     0          
C272     C      0.266700000000     0.673400000000     0.326600000000     0          
O273     O      0.873300000000     0.453760000000     0.453760000000     0          
O274     O      0.928800000000     0.412620000000     0.412620000000     0          
C275     C      0.885000000000     0.423500000000     0.423500000000     0          
C276     C      0.848800000000     0.396700000000     0.396700000000     0          
C277     C      0.801600000000     0.406500000000     0.406500000000     0          
H278     H      0.794200000000     0.429100000000     0.429100000000     0          
C279     C      0.764900000000     0.382900000000     0.382900000000     0          
H280     H      0.733900000000     0.390500000000     0.390500000000     0          
C281     C      0.772600000000     0.349200000000     0.349200000000     0          
C282     C      0.818800000000     0.340100000000     0.340100000000     0          
H283     H      0.826100000000     0.317500000000     0.317500000000     0          
C284     C      0.855500000000     0.362600000000     0.362600000000     0          
H285     H      0.886200000000     0.354400000000     0.354400000000     0          
C286     C      0.733300000000     0.326600000000     0.326600000000     0          
O287     O      0.126700000000     0.453760000000     0.546240000000     0          
O288     O      0.071200000000     0.412620000000     0.587380000000     0          
C289     C      0.115000000000     0.423500000000     0.576500000000     0          
C290     C      0.151200000000     0.396700000000     0.603300000000     0          
C291     C      0.198400000000     0.406500000000     0.593500000000     0          
H292     H      0.205800000000     0.429100000000     0.570900000000     0          
C293     C      0.235100000000     0.382900000000     0.617100000000     0          
H294     H      0.266100000000     0.390500000000     0.609500000000     0          
C295     C      0.227400000000     0.349200000000     0.650800000000     0          
C296     C      0.181200000000     0.340100000000     0.659900000000     0          
H297     H      0.173900000000     0.317500000000     0.682500000000     0          
C298     C      0.144500000000     0.362600000000     0.637400000000     0          
H299     H      0.113800000000     0.354400000000     0.645600000000     0          
C300     C      0.266700000000     0.326600000000     0.673400000000     0          
O301     O      0.873300000000     0.546240000000     0.546240000000     0          
O302     O      0.928800000000     0.587380000000     0.587380000000     0          
C303     C      0.885000000000     0.576500000000     0.576500000000     0          
C304     C      0.848800000000     0.603300000000     0.603300000000     0          
C305     C      0.801600000000     0.593500000000     0.593500000000     0          
H306     H      0.794200000000     0.570900000000     0.570900000000     0          
C307     C      0.764900000000     0.617100000000     0.617100000000     0          
H308     H      0.733900000000     0.609500000000     0.609500000000     0          
C309     C      0.772600000000     0.650800000000     0.650800000000     0          
C310     C      0.818800000000     0.659900000000     0.659900000000     0          
H311     H      0.826100000000     0.682500000000     0.682500000000     0          
C312     C      0.855500000000     0.637400000000     0.637400000000     0          
H313     H      0.886200000000     0.645600000000     0.645600000000     0          
C314     C      0.733300000000     0.673400000000     0.673400000000     0          
O315     O      0.546240000000     0.546240000000     0.873300000000     0          
O316     O      0.587380000000     0.587380000000     0.928800000000     0          
C317     C      0.576500000000     0.576500000000     0.885000000000     0          
C318     C      0.603300000000     0.603300000000     0.848800000000     0          
C319     C      0.593500000000     0.593500000000     0.801600000000     0          
H320     H      0.570900000000     0.570900000000     0.794200000000     0          
C321     C      0.617100000000     0.617100000000     0.764900000000     0          
H322     H      0.609500000000     0.609500000000     0.733900000000     0          
C323     C      0.650800000000     0.650800000000     0.772600000000     0          
C324     C      0.659900000000     0.659900000000     0.818800000000     0          
H325     H      0.682500000000     0.682500000000     0.826100000000     0          
C326     C      0.637400000000     0.637400000000     0.855500000000     0          
H327     H      0.645600000000     0.645600000000     0.886200000000     0          
C328     C      0.673400000000     0.673400000000     0.733300000000     0          
O329     O      0.453760000000     0.546240000000     0.126700000000     0          
O330     O      0.412620000000     0.587380000000     0.071200000000     0          
C331     C      0.423500000000     0.576500000000     0.115000000000     0          
C332     C      0.396700000000     0.603300000000     0.151200000000     0          
C333     C      0.406500000000     0.593500000000     0.198400000000     0          
H334     H      0.429100000000     0.570900000000     0.205800000000     0          
C335     C      0.382900000000     0.617100000000     0.235100000000     0          
H336     H      0.390500000000     0.609500000000     0.266100000000     0          
C337     C      0.349200000000     0.650800000000     0.227400000000     0          
C338     C      0.340100000000     0.659900000000     0.181200000000     0          
H339     H      0.317500000000     0.682500000000     0.173900000000     0          
C340     C      0.362600000000     0.637400000000     0.144500000000     0          
H341     H      0.354400000000     0.645600000000     0.113800000000     0          
C342     C      0.326600000000     0.673400000000     0.266700000000     0          
O343     O      0.453760000000     0.453760000000     0.873300000000     0          
O344     O      0.412620000000     0.412620000000     0.928800000000     0          
C345     C      0.423500000000     0.423500000000     0.885000000000     0          
C346     C      0.396700000000     0.396700000000     0.848800000000     0          
C347     C      0.406500000000     0.406500000000     0.801600000000     0          
H348     H      0.429100000000     0.429100000000     0.794200000000     0          
C349     C      0.382900000000     0.382900000000     0.764900000000     0          
H350     H      0.390500000000     0.390500000000     0.733900000000     0          
C351     C      0.349200000000     0.349200000000     0.772600000000     0          
C352     C      0.340100000000     0.340100000000     0.818800000000     0          
H353     H      0.317500000000     0.317500000000     0.826100000000     0          
C354     C      0.362600000000     0.362600000000     0.855500000000     0          
H355     H      0.354400000000     0.354400000000     0.886200000000     0          
C356     C      0.326600000000     0.326600000000     0.733300000000     0          
O357     O      0.546240000000     0.453760000000     0.126700000000     0          
O358     O      0.587380000000     0.412620000000     0.071200000000     0          
C359     C      0.576500000000     0.423500000000     0.115000000000     0          
C360     C      0.603300000000     0.396700000000     0.151200000000     0          
C361     C      0.593500000000     0.406500000000     0.198400000000     0          
H362     H      0.570900000000     0.429100000000     0.205800000000     0          
C363     C      0.617100000000     0.382900000000     0.235100000000     0          
H364     H      0.609500000000     0.390500000000     0.266100000000     0          
C365     C      0.650800000000     0.349200000000     0.227400000000     0          
C366     C      0.659900000000     0.340100000000     0.181200000000     0          
H367     H      0.682500000000     0.317500000000     0.173900000000     0          
C368     C      0.637400000000     0.362600000000     0.144500000000     0          
H369     H      0.645600000000     0.354400000000     0.113800000000     0          
C370     C      0.673400000000     0.326600000000     0.266700000000     0          
O371     O      0.546240000000     0.126700000000     0.453760000000     0          
O372     O      0.587380000000     0.071200000000     0.412620000000     0          
C373     C      0.576500000000     0.115000000000     0.423500000000     0          
C374     C      0.603300000000     0.151200000000     0.396700000000     0          
C375     C      0.593500000000     0.198400000000     0.406500000000     0          
H376     H      0.570900000000     0.205800000000     0.429100000000     0          
C377     C      0.617100000000     0.235100000000     0.382900000000     0          
H378     H      0.609500000000     0.266100000000     0.390500000000     0          
C379     C      0.650800000000     0.227400000000     0.349200000000     0          
C380     C      0.659900000000     0.181200000000     0.340100000000     0          
H381     H      0.682500000000     0.173900000000     0.317500000000     0          
C382     C      0.637400000000     0.144500000000     0.362600000000     0          
H383     H      0.645600000000     0.113800000000     0.354400000000     0          
C384     C      0.673400000000     0.266700000000     0.326600000000     0          
O385     O      0.546240000000     0.873300000000     0.546240000000     0          
O386     O      0.587380000000     0.928800000000     0.587380000000     0          
C387     C      0.576500000000     0.885000000000     0.576500000000     0          
C388     C      0.603300000000     0.848800000000     0.603300000000     0          
C389     C      0.593500000000     0.801600000000     0.593500000000     0          
H390     H      0.570900000000     0.794200000000     0.570900000000     0          
C391     C      0.617100000000     0.764900000000     0.617100000000     0          
H392     H      0.609500000000     0.733900000000     0.609500000000     0          
C393     C      0.650800000000     0.772600000000     0.650800000000     0          
C394     C      0.659900000000     0.818800000000     0.659900000000     0          
H395     H      0.682500000000     0.826100000000     0.682500000000     0          
C396     C      0.637400000000     0.855500000000     0.637400000000     0          
H397     H      0.645600000000     0.886200000000     0.645600000000     0          
C398     C      0.673400000000     0.733300000000     0.673400000000     0          
O399     O      0.453760000000     0.126700000000     0.546240000000     0          
O400     O      0.412620000000     0.071200000000     0.587380000000     0          
C401     C      0.423500000000     0.115000000000     0.576500000000     0          
C402     C      0.396700000000     0.151200000000     0.603300000000     0          
C403     C      0.406500000000     0.198400000000     0.593500000000     0          
H404     H      0.429100000000     0.205800000000     0.570900000000     0          
C405     C      0.382900000000     0.235100000000     0.617100000000     0          
H406     H      0.390500000000     0.266100000000     0.609500000000     0          
C407     C      0.349200000000     0.227400000000     0.650800000000     0          
C408     C      0.340100000000     0.181200000000     0.659900000000     0          
H409     H      0.317500000000     0.173900000000     0.682500000000     0          
C410     C      0.362600000000     0.144500000000     0.637400000000     0          
H411     H      0.354400000000     0.113800000000     0.645600000000     0          
C412     C      0.326600000000     0.266700000000     0.673400000000     0          
O413     O      0.453760000000     0.873300000000     0.453760000000     0          
O414     O      0.412620000000     0.928800000000     0.412620000000     0          
C415     C      0.423500000000     0.885000000000     0.423500000000     0          
C416     C      0.396700000000     0.848800000000     0.396700000000     0          
C417     C      0.406500000000     0.801600000000     0.406500000000     0          
H418     H      0.429100000000     0.794200000000     0.429100000000     0          
C419     C      0.382900000000     0.764900000000     0.382900000000     0          
H420     H      0.390500000000     0.733900000000     0.390500000000     0          
C421     C      0.349200000000     0.772600000000     0.349200000000     0          
C422     C      0.340100000000     0.818800000000     0.340100000000     0          
H423     H      0.317500000000     0.826100000000     0.317500000000     0          
C424     C      0.362600000000     0.855500000000     0.362600000000     0          
H425     H      0.354400000000     0.886200000000     0.354400000000     0          
C426     C      0.326600000000     0.733300000000     0.326600000000     0          
O427     O      0.437100000000     0.043290000000     0.500000000000     0          
O428     O      0.562900000000     0.956710000000     0.500000000000     0          
O429     O      0.562900000000     0.043290000000     0.500000000000     0          
O430     O      0.437100000000     0.956710000000     0.500000000000     0          
O431     O      0.500000000000     0.437100000000     0.043290000000     0          
O432     O      0.500000000000     0.562900000000     0.956710000000     0          
O433     O      0.500000000000     0.562900000000     0.043290000000     0          
O434     O      0.500000000000     0.437100000000     0.956710000000     0          
O435     O      0.043290000000     0.500000000000     0.437100000000     0          
O436     O      0.956710000000     0.500000000000     0.562900000000     0          
O437     O      0.043290000000     0.500000000000     0.562900000000     0          
O438     O      0.956710000000     0.500000000000     0.437100000000     0          
O439     O      0.043290000000     0.437100000000     0.500000000000     0          
O440     O      0.956710000000     0.562900000000     0.500000000000     0          
O441     O      0.043290000000     0.562900000000     0.500000000000     0          
O442     O      0.956710000000     0.437100000000     0.500000000000     0          
O443     O      0.437100000000     0.500000000000     0.956710000000     0          
O444     O      0.562900000000     0.500000000000     0.043290000000     0          
O445     O      0.562900000000     0.500000000000     0.956710000000     0          
O446     O      0.437100000000     0.500000000000     0.043290000000     0          
O447     O      0.500000000000     0.043290000000     0.562900000000     0          
O448     O      0.500000000000     0.956710000000     0.437100000000     0          
O449     O      0.500000000000     0.043290000000     0.437100000000     0          
O450     O      0.500000000000     0.956710000000     0.562900000000     0          
O451     O      0.354350000000     0.000000000000     0.444800000000     0          
O452     O      0.645650000000     0.000000000000     0.444800000000     0          
O453     O      0.645650000000     0.000000000000     0.555200000000     0          
O454     O      0.354350000000     0.000000000000     0.555200000000     0          
O455     O      0.444800000000     0.354350000000     0.000000000000     0          
O456     O      0.444800000000     0.645650000000     0.000000000000     0          
O457     O      0.555200000000     0.645650000000     0.000000000000     0          
O458     O      0.555200000000     0.354350000000     0.000000000000     0          
O459     O      0.000000000000     0.444800000000     0.354350000000     0          
O460     O      0.000000000000     0.444800000000     0.645650000000     0          
O461     O      0.000000000000     0.555200000000     0.645650000000     0          
O462     O      0.000000000000     0.555200000000     0.354350000000     0          
O463     O      0.000000000000     0.354350000000     0.555200000000     0          
O464     O      0.000000000000     0.645650000000     0.555200000000     0          
O465     O      0.000000000000     0.645650000000     0.444800000000     0          
O466     O      0.000000000000     0.354350000000     0.444800000000     0          
O467     O      0.354350000000     0.444800000000     0.000000000000     0          
O468     O      0.645650000000     0.444800000000     0.000000000000     0          
O469     O      0.645650000000     0.555200000000     0.000000000000     0          
O470     O      0.354350000000     0.555200000000     0.000000000000     0          
O471     O      0.444800000000     0.000000000000     0.645650000000     0          
O472     O      0.444800000000     0.000000000000     0.354350000000     0          
O473     O      0.555200000000     0.000000000000     0.354350000000     0          
O474     O      0.555200000000     0.000000000000     0.645650000000     0          
C475     C      0.653400000000     0.286000000000     0.714000000000     0          
C476     C      0.608900000000     0.263400000000     0.736600000000     0          
C477     C      0.346600000000     0.714000000000     0.714000000000     0          
C478     C      0.391100000000     0.736600000000     0.736600000000     0          
C479     C      0.346600000000     0.286000000000     0.286000000000     0          
C480     C      0.391100000000     0.263400000000     0.263400000000     0          
C481     C      0.653400000000     0.714000000000     0.286000000000     0          
C482     C      0.608900000000     0.736600000000     0.263400000000     0          
C483     C      0.714000000000     0.653400000000     0.286000000000     0          
C484     C      0.736600000000     0.608900000000     0.263400000000     0          
C485     C      0.714000000000     0.346600000000     0.714000000000     0          
C486     C      0.736600000000     0.391100000000     0.736600000000     0          
C487     C      0.286000000000     0.346600000000     0.286000000000     0          
C488     C      0.263400000000     0.391100000000     0.263400000000     0          
C489     C      0.286000000000     0.653400000000     0.714000000000     0          
C490     C      0.263400000000     0.608900000000     0.736600000000     0          
C491     C      0.286000000000     0.714000000000     0.653400000000     0          
C492     C      0.263400000000     0.736600000000     0.608900000000     0          
C493     C      0.714000000000     0.714000000000     0.346600000000     0          
C494     C      0.736600000000     0.736600000000     0.391100000000     0          
C495     C      0.286000000000     0.286000000000     0.346600000000     0          
C496     C      0.263400000000     0.263400000000     0.391100000000     0          
C497     C      0.714000000000     0.286000000000     0.653400000000     0          
C498     C      0.736600000000     0.263400000000     0.608900000000     0          
C499     C      0.286000000000     0.653400000000     0.286000000000     0          
C500     C      0.263400000000     0.608900000000     0.263400000000     0          
C501     C      0.714000000000     0.346600000000     0.286000000000     0          
C502     C      0.736600000000     0.391100000000     0.263400000000     0          
C503     C      0.286000000000     0.346600000000     0.714000000000     0          
C504     C      0.263400000000     0.391100000000     0.736600000000     0          
C505     C      0.714000000000     0.653400000000     0.714000000000     0          
C506     C      0.736600000000     0.608900000000     0.736600000000     0          
C507     C      0.653400000000     0.714000000000     0.714000000000     0          
C508     C      0.608900000000     0.736600000000     0.736600000000     0          
C509     C      0.346600000000     0.714000000000     0.286000000000     0          
C510     C      0.391100000000     0.736600000000     0.263400000000     0          
C511     C      0.346600000000     0.286000000000     0.714000000000     0          
C512     C      0.391100000000     0.263400000000     0.736600000000     0          
C513     C      0.653400000000     0.286000000000     0.286000000000     0          
C514     C      0.608900000000     0.263400000000     0.263400000000     0          
C515     C      0.714000000000     0.286000000000     0.346600000000     0          
C516     C      0.736600000000     0.263400000000     0.391100000000     0          
C517     C      0.714000000000     0.714000000000     0.653400000000     0          
C518     C      0.736600000000     0.736600000000     0.608900000000     0          
C519     C      0.286000000000     0.286000000000     0.653400000000     0          
C520     C      0.263400000000     0.263400000000     0.608900000000     0          
C521     C      0.286000000000     0.714000000000     0.346600000000     0          
C522     C      0.263400000000     0.736600000000     0.391100000000     0          


