data_ESEBUB

_audit_creation_method RASPA-1.0
_audit_creation_date 2020-11-2
_audit_author_name 'Rocio Bueno-Perez'

_cell_length_a    28.1914
_cell_length_b    28.1914
_cell_length_c    28.1914
_cell_angle_alpha 90
_cell_angle_beta  90
_cell_angle_gamma 90
_cell_volume      22405.3

_symmetry_cell_setting          triclinic
_symmetry_space_group_name_Hall 'P 1'
_symmetry_space_group_name_H-M  'P 1'
_symmetry_Int_Tables_number     1

_symmetry_equiv_pos_as_xyz 'x,y,z'

loop_
_atom_site_label
_atom_site_type_symbol
_atom_site_fract_x
_atom_site_fract_y
_atom_site_fract_z
_atom_site_charge
H1       H      0.755900000000     0.288600000000     0.592000000000     0          
H2       H      0.708800000000     0.257900000000     0.584400000000     0          
H3       H      0.752100000000     0.236600000000     0.614300000000     0          
H4       H      0.244100000000     0.288600000000     0.408000000000     0          
H5       H      0.291200000000     0.257900000000     0.415600000000     0          
H6       H      0.247900000000     0.236600000000     0.385700000000     0          
H7       H      0.592000000000     0.244100000000     0.711400000000     0          
H8       H      0.584400000000     0.291200000000     0.742100000000     0          
H9       H      0.614300000000     0.247900000000     0.763400000000     0          
H10      H      0.408000000000     0.755900000000     0.711400000000     0          
H11      H      0.415600000000     0.708800000000     0.742100000000     0          
H12      H      0.385700000000     0.752100000000     0.763400000000     0          
H13      H      0.711400000000     0.592000000000     0.244100000000     0          
H14      H      0.742100000000     0.584400000000     0.291200000000     0          
H15      H      0.763400000000     0.614300000000     0.247900000000     0          
H16      H      0.288600000000     0.755900000000     0.408000000000     0          
H17      H      0.257900000000     0.708800000000     0.415600000000     0          
H18      H      0.236600000000     0.752100000000     0.385700000000     0          
H19      H      0.288600000000     0.244100000000     0.592000000000     0          
H20      H      0.257900000000     0.291200000000     0.584400000000     0          
H21      H      0.236600000000     0.247900000000     0.614300000000     0          
H22      H      0.711400000000     0.755900000000     0.592000000000     0          
H23      H      0.742100000000     0.708800000000     0.584400000000     0          
H24      H      0.763400000000     0.752100000000     0.614300000000     0          
H25      H      0.291200000000     0.584400000000     0.257900000000     0          
H26      H      0.244100000000     0.408000000000     0.711400000000     0          
H27      H      0.291200000000     0.415600000000     0.742100000000     0          
H28      H      0.247900000000     0.385700000000     0.763400000000     0          
H29      H      0.755900000000     0.408000000000     0.288600000000     0          
H30      H      0.708800000000     0.415600000000     0.257900000000     0          
H31      H      0.755900000000     0.288600000000     0.408000000000     0          
H32      H      0.708800000000     0.257900000000     0.415600000000     0          
H33      H      0.752100000000     0.236600000000     0.385700000000     0          
H34      H      0.408000000000     0.244100000000     0.711400000000     0          
H35      H      0.415600000000     0.291200000000     0.742100000000     0          
H36      H      0.385700000000     0.247900000000     0.763400000000     0          
H37      H      0.408000000000     0.755900000000     0.288600000000     0          
H38      H      0.415600000000     0.708800000000     0.257900000000     0          
H39      H      0.385700000000     0.752100000000     0.236600000000     0          
H40      H      0.592000000000     0.755900000000     0.711400000000     0          
H41      H      0.584400000000     0.708800000000     0.742100000000     0          
H42      H      0.614300000000     0.752100000000     0.763400000000     0          
H43      H      0.592000000000     0.244100000000     0.288600000000     0          
H44      H      0.584400000000     0.291200000000     0.257900000000     0          
H45      H      0.614300000000     0.247900000000     0.236600000000     0          
H46      H      0.763400000000     0.385700000000     0.247900000000     0          
H47      H      0.711400000000     0.592000000000     0.755900000000     0          
H48      H      0.742100000000     0.584400000000     0.708800000000     0          
H49      H      0.763400000000     0.614300000000     0.752100000000     0          
H50      H      0.257900000000     0.584400000000     0.291200000000     0          
H51      H      0.236600000000     0.614300000000     0.247900000000     0          
H52      H      0.288600000000     0.755900000000     0.592000000000     0          
H53      H      0.257900000000     0.708800000000     0.584400000000     0          
H54      H      0.236600000000     0.752100000000     0.614300000000     0          
H55      H      0.711400000000     0.755900000000     0.408000000000     0          
H56      H      0.742100000000     0.708800000000     0.415600000000     0          
H57      H      0.763400000000     0.752100000000     0.385700000000     0          
H58      H      0.244100000000     0.408000000000     0.288600000000     0          
H59      H      0.291200000000     0.415600000000     0.257900000000     0          
H60      H      0.247900000000     0.385700000000     0.236600000000     0          
H61      H      0.755900000000     0.408000000000     0.711400000000     0          
H62      H      0.708800000000     0.415600000000     0.742100000000     0          
H63      H      0.752100000000     0.385700000000     0.763400000000     0          
H64      H      0.244100000000     0.592000000000     0.711400000000     0          
H65      H      0.291200000000     0.584400000000     0.742100000000     0          
H66      H      0.247900000000     0.614300000000     0.763400000000     0          
H67      H      0.408000000000     0.288600000000     0.244100000000     0          
H68      H      0.415600000000     0.257900000000     0.291200000000     0          
H69      H      0.385700000000     0.236600000000     0.247900000000     0          
H70      H      0.592000000000     0.711400000000     0.244100000000     0          
H71      H      0.584400000000     0.742100000000     0.291200000000     0          
H72      H      0.614300000000     0.763400000000     0.247900000000     0          
Zr73     Zr     0.500000000000     0.086770000000     0.500000000000     0          
Zr74     Zr     0.500000000000     0.913230000000     0.500000000000     0          
Zr75     Zr     0.500000000000     0.500000000000     0.086770000000     0          
Zr76     Zr     0.500000000000     0.500000000000     0.913230000000     0          
Zr77     Zr     0.086770000000     0.500000000000     0.500000000000     0          
Zr78     Zr     0.913230000000     0.500000000000     0.500000000000     0          
O79      O      0.548200000000     0.126000000000     0.548200000000     0          
C80      C      0.577700000000     0.113400000000     0.577700000000     0          
O81      O      0.587700000000     0.071300000000     0.587700000000     0          
C82      C      0.602900000000     0.151900000000     0.602900000000     0          
C83      C      0.635700000000     0.144500000000     0.635700000000     0          
C84      C      0.591300000000     0.199500000000     0.591300000000     0          
H85      H      0.643300000000     0.112600000000     0.643300000000     0          
C86      C      0.659500000000     0.180300000000     0.659500000000     0          
C87      C      0.614400000000     0.235000000000     0.614400000000     0          
H88      H      0.568000000000     0.206400000000     0.568000000000     0          
H89      H      0.682700000000     0.172700000000     0.682700000000     0          
C90      C      0.649300000000     0.226500000000     0.649300000000     0          
H91      H      0.606700000000     0.266900000000     0.606700000000     0          
C92      C      0.672800000000     0.266900000000     0.672800000000     0          
O93      O      0.451800000000     0.874000000000     0.548200000000     0          
C94      C      0.422300000000     0.886600000000     0.577700000000     0          
O95      O      0.412300000000     0.928700000000     0.587700000000     0          
C96      C      0.397100000000     0.848100000000     0.602900000000     0          
C97      C      0.364300000000     0.855500000000     0.635700000000     0          
C98      C      0.408700000000     0.800500000000     0.591300000000     0          
H99      H      0.356700000000     0.887400000000     0.643300000000     0          
C100     C      0.340500000000     0.819700000000     0.659500000000     0          
C101     C      0.385600000000     0.765000000000     0.614400000000     0          
H102     H      0.432000000000     0.793600000000     0.568000000000     0          
H103     H      0.317300000000     0.827300000000     0.682700000000     0          
C104     C      0.350700000000     0.773500000000     0.649300000000     0          
H105     H      0.393300000000     0.733100000000     0.606700000000     0          
C106     C      0.327200000000     0.733100000000     0.672800000000     0          
O107     O      0.451800000000     0.126000000000     0.451800000000     0          
C108     C      0.422300000000     0.113400000000     0.422300000000     0          
O109     O      0.412300000000     0.071300000000     0.412300000000     0          
C110     C      0.397100000000     0.151900000000     0.397100000000     0          
C111     C      0.364300000000     0.144500000000     0.364300000000     0          
C112     C      0.408700000000     0.199500000000     0.408700000000     0          
H113     H      0.356700000000     0.112600000000     0.356700000000     0          
C114     C      0.340500000000     0.180300000000     0.340500000000     0          
C115     C      0.385600000000     0.235000000000     0.385600000000     0          
H116     H      0.432000000000     0.206400000000     0.432000000000     0          
H117     H      0.317300000000     0.172700000000     0.317300000000     0          
C118     C      0.350700000000     0.226500000000     0.350700000000     0          
H119     H      0.393300000000     0.266900000000     0.393300000000     0          
C120     C      0.327200000000     0.266900000000     0.327200000000     0          
O121     O      0.548200000000     0.874000000000     0.451800000000     0          
C122     C      0.577700000000     0.886600000000     0.422300000000     0          
O123     O      0.587700000000     0.928700000000     0.412300000000     0          
C124     C      0.602900000000     0.848100000000     0.397100000000     0          
C125     C      0.635700000000     0.855500000000     0.364300000000     0          
C126     C      0.591300000000     0.800500000000     0.408700000000     0          
H127     H      0.643300000000     0.887400000000     0.356700000000     0          
C128     C      0.659500000000     0.819700000000     0.340500000000     0          
C129     C      0.614400000000     0.765000000000     0.385600000000     0          
H130     H      0.568000000000     0.793600000000     0.432000000000     0          
H131     H      0.682700000000     0.827300000000     0.317300000000     0          
C132     C      0.649300000000     0.773500000000     0.350700000000     0          
H133     H      0.606700000000     0.733100000000     0.393300000000     0          
C134     C      0.672800000000     0.733100000000     0.327200000000     0          
O135     O      0.548200000000     0.548200000000     0.126000000000     0          
C136     C      0.577700000000     0.577700000000     0.113400000000     0          
O137     O      0.587700000000     0.587700000000     0.071300000000     0          
C138     C      0.602900000000     0.602900000000     0.151900000000     0          
C139     C      0.635700000000     0.635700000000     0.144500000000     0          
C140     C      0.591300000000     0.591300000000     0.199500000000     0          
H141     H      0.643300000000     0.643300000000     0.112600000000     0          
C142     C      0.659500000000     0.659500000000     0.180300000000     0          
C143     C      0.614400000000     0.614400000000     0.235000000000     0          
H144     H      0.568000000000     0.568000000000     0.206400000000     0          
H145     H      0.682700000000     0.682700000000     0.172700000000     0          
C146     C      0.649300000000     0.649300000000     0.226500000000     0          
H147     H      0.606700000000     0.606700000000     0.266900000000     0          
C148     C      0.672800000000     0.672800000000     0.266900000000     0          
O149     O      0.548200000000     0.451800000000     0.874000000000     0          
C150     C      0.577700000000     0.422300000000     0.886600000000     0          
O151     O      0.587700000000     0.412300000000     0.928700000000     0          
C152     C      0.602900000000     0.397100000000     0.848100000000     0          
C153     C      0.635700000000     0.364300000000     0.855500000000     0          
C154     C      0.591300000000     0.408700000000     0.800500000000     0          
H155     H      0.643300000000     0.356700000000     0.887400000000     0          
C156     C      0.659500000000     0.340500000000     0.819700000000     0          
C157     C      0.614400000000     0.385600000000     0.765000000000     0          
H158     H      0.568000000000     0.432000000000     0.793600000000     0          
H159     H      0.682700000000     0.317300000000     0.827300000000     0          
C160     C      0.649300000000     0.350700000000     0.773500000000     0          
H161     H      0.606700000000     0.393300000000     0.733100000000     0          
C162     C      0.672800000000     0.327200000000     0.733100000000     0          
O163     O      0.451800000000     0.451800000000     0.126000000000     0          
C164     C      0.422300000000     0.422300000000     0.113400000000     0          
O165     O      0.412300000000     0.412300000000     0.071300000000     0          
C166     C      0.397100000000     0.397100000000     0.151900000000     0          
C167     C      0.364300000000     0.364300000000     0.144500000000     0          
C168     C      0.408700000000     0.408700000000     0.199500000000     0          
H169     H      0.356700000000     0.356700000000     0.112600000000     0          
C170     C      0.340500000000     0.340500000000     0.180300000000     0          
C171     C      0.385600000000     0.385600000000     0.235000000000     0          
H172     H      0.432000000000     0.432000000000     0.206400000000     0          
H173     H      0.317300000000     0.317300000000     0.172700000000     0          
C174     C      0.350700000000     0.350700000000     0.226500000000     0          
H175     H      0.393300000000     0.393300000000     0.266900000000     0          
C176     C      0.327200000000     0.327200000000     0.266900000000     0          
O177     O      0.451800000000     0.548200000000     0.874000000000     0          
C178     C      0.422300000000     0.577700000000     0.886600000000     0          
O179     O      0.412300000000     0.587700000000     0.928700000000     0          
C180     C      0.397100000000     0.602900000000     0.848100000000     0          
C181     C      0.364300000000     0.635700000000     0.855500000000     0          
C182     C      0.408700000000     0.591300000000     0.800500000000     0          
H183     H      0.356700000000     0.643300000000     0.887400000000     0          
C184     C      0.340500000000     0.659500000000     0.819700000000     0          
C185     C      0.385600000000     0.614400000000     0.765000000000     0          
H186     H      0.432000000000     0.568000000000     0.793600000000     0          
H187     H      0.317300000000     0.682700000000     0.827300000000     0          
C188     C      0.350700000000     0.649300000000     0.773500000000     0          
H189     H      0.393300000000     0.606700000000     0.733100000000     0          
C190     C      0.327200000000     0.672800000000     0.733100000000     0          
O191     O      0.126000000000     0.548200000000     0.548200000000     0          
C192     C      0.113400000000     0.577700000000     0.577700000000     0          
O193     O      0.071300000000     0.587700000000     0.587700000000     0          
C194     C      0.151900000000     0.602900000000     0.602900000000     0          
C195     C      0.144500000000     0.635700000000     0.635700000000     0          
C196     C      0.199500000000     0.591300000000     0.591300000000     0          
H197     H      0.112600000000     0.643300000000     0.643300000000     0          
C198     C      0.180300000000     0.659500000000     0.659500000000     0          
C199     C      0.235000000000     0.614400000000     0.614400000000     0          
H200     H      0.206400000000     0.568000000000     0.568000000000     0          
H201     H      0.172700000000     0.682700000000     0.682700000000     0          
C202     C      0.226500000000     0.649300000000     0.649300000000     0          
H203     H      0.266900000000     0.606700000000     0.606700000000     0          
C204     C      0.266900000000     0.672800000000     0.672800000000     0          
O205     O      0.874000000000     0.548200000000     0.451800000000     0          
C206     C      0.886600000000     0.577700000000     0.422300000000     0          
O207     O      0.928700000000     0.587700000000     0.412300000000     0          
C208     C      0.848100000000     0.602900000000     0.397100000000     0          
C209     C      0.855500000000     0.635700000000     0.364300000000     0          
C210     C      0.800500000000     0.591300000000     0.408700000000     0          
H211     H      0.887400000000     0.643300000000     0.356700000000     0          
C212     C      0.819700000000     0.659500000000     0.340500000000     0          
C213     C      0.765000000000     0.614400000000     0.385600000000     0          
H214     H      0.793600000000     0.568000000000     0.432000000000     0          
H215     H      0.827300000000     0.682700000000     0.317300000000     0          
C216     C      0.773500000000     0.649300000000     0.350700000000     0          
H217     H      0.733100000000     0.606700000000     0.393300000000     0          
C218     C      0.733100000000     0.672800000000     0.327200000000     0          
O219     O      0.126000000000     0.451800000000     0.451800000000     0          
C220     C      0.113400000000     0.422300000000     0.422300000000     0          
O221     O      0.071300000000     0.412300000000     0.412300000000     0          
C222     C      0.151900000000     0.397100000000     0.397100000000     0          
C223     C      0.144500000000     0.364300000000     0.364300000000     0          
C224     C      0.199500000000     0.408700000000     0.408700000000     0          
H225     H      0.112600000000     0.356700000000     0.356700000000     0          
C226     C      0.180300000000     0.340500000000     0.340500000000     0          
C227     C      0.235000000000     0.385600000000     0.385600000000     0          
H228     H      0.206400000000     0.432000000000     0.432000000000     0          
H229     H      0.172700000000     0.317300000000     0.317300000000     0          
C230     C      0.226500000000     0.350700000000     0.350700000000     0          
H231     H      0.266900000000     0.393300000000     0.393300000000     0          
C232     C      0.266900000000     0.327200000000     0.327200000000     0          
O233     O      0.874000000000     0.451800000000     0.548200000000     0          
C234     C      0.886600000000     0.422300000000     0.577700000000     0          
O235     O      0.928700000000     0.412300000000     0.587700000000     0          
C236     C      0.848100000000     0.397100000000     0.602900000000     0          
C237     C      0.855500000000     0.364300000000     0.635700000000     0          
C238     C      0.800500000000     0.408700000000     0.591300000000     0          
H239     H      0.887400000000     0.356700000000     0.643300000000     0          
C240     C      0.819700000000     0.340500000000     0.659500000000     0          
C241     C      0.765000000000     0.385600000000     0.614400000000     0          
H242     H      0.793600000000     0.432000000000     0.568000000000     0          
H243     H      0.827300000000     0.317300000000     0.682700000000     0          
C244     C      0.773500000000     0.350700000000     0.649300000000     0          
H245     H      0.733100000000     0.393300000000     0.606700000000     0          
C246     C      0.733100000000     0.327200000000     0.672800000000     0          
O247     O      0.126000000000     0.548200000000     0.451800000000     0          
C248     C      0.113400000000     0.577700000000     0.422300000000     0          
O249     O      0.071300000000     0.587700000000     0.412300000000     0          
C250     C      0.151900000000     0.602900000000     0.397100000000     0          
C251     C      0.144500000000     0.635700000000     0.364300000000     0          
C252     C      0.199500000000     0.591300000000     0.408700000000     0          
H253     H      0.112600000000     0.643300000000     0.356700000000     0          
C254     C      0.180300000000     0.659500000000     0.340500000000     0          
C255     C      0.235000000000     0.614400000000     0.385600000000     0          
H256     H      0.206400000000     0.568000000000     0.432000000000     0          
H257     H      0.172700000000     0.682700000000     0.317300000000     0          
C258     C      0.226500000000     0.649300000000     0.350700000000     0          
H259     H      0.266900000000     0.606700000000     0.393300000000     0          
C260     C      0.266900000000     0.672800000000     0.327200000000     0          
O261     O      0.874000000000     0.451800000000     0.451800000000     0          
C262     C      0.886600000000     0.422300000000     0.422300000000     0          
O263     O      0.928700000000     0.412300000000     0.412300000000     0          
C264     C      0.848100000000     0.397100000000     0.397100000000     0          
C265     C      0.855500000000     0.364300000000     0.364300000000     0          
C266     C      0.800500000000     0.408700000000     0.408700000000     0          
H267     H      0.887400000000     0.356700000000     0.356700000000     0          
C268     C      0.819700000000     0.340500000000     0.340500000000     0          
C269     C      0.765000000000     0.385600000000     0.385600000000     0          
H270     H      0.793600000000     0.432000000000     0.432000000000     0          
H271     H      0.827300000000     0.317300000000     0.317300000000     0          
C272     C      0.773500000000     0.350700000000     0.350700000000     0          
H273     H      0.733100000000     0.393300000000     0.393300000000     0          
C274     C      0.733100000000     0.327200000000     0.327200000000     0          
O275     O      0.126000000000     0.451800000000     0.548200000000     0          
C276     C      0.113400000000     0.422300000000     0.577700000000     0          
O277     O      0.071300000000     0.412300000000     0.587700000000     0          
C278     C      0.151900000000     0.397100000000     0.602900000000     0          
C279     C      0.144500000000     0.364300000000     0.635700000000     0          
C280     C      0.199500000000     0.408700000000     0.591300000000     0          
H281     H      0.112600000000     0.356700000000     0.643300000000     0          
C282     C      0.180300000000     0.340500000000     0.659500000000     0          
C283     C      0.235000000000     0.385600000000     0.614400000000     0          
H284     H      0.206400000000     0.432000000000     0.568000000000     0          
H285     H      0.172700000000     0.317300000000     0.682700000000     0          
C286     C      0.226500000000     0.350700000000     0.649300000000     0          
H287     H      0.266900000000     0.393300000000     0.606700000000     0          
C288     C      0.266900000000     0.327200000000     0.672800000000     0          
O289     O      0.874000000000     0.548200000000     0.548200000000     0          
C290     C      0.886600000000     0.577700000000     0.577700000000     0          
O291     O      0.928700000000     0.587700000000     0.587700000000     0          
C292     C      0.848100000000     0.602900000000     0.602900000000     0          
C293     C      0.855500000000     0.635700000000     0.635700000000     0          
C294     C      0.800500000000     0.591300000000     0.591300000000     0          
H295     H      0.887400000000     0.643300000000     0.643300000000     0          
C296     C      0.819700000000     0.659500000000     0.659500000000     0          
C297     C      0.765000000000     0.614400000000     0.614400000000     0          
H298     H      0.793600000000     0.568000000000     0.568000000000     0          
H299     H      0.827300000000     0.682700000000     0.682700000000     0          
C300     C      0.773500000000     0.649300000000     0.649300000000     0          
H301     H      0.733100000000     0.606700000000     0.606700000000     0          
C302     C      0.733100000000     0.672800000000     0.672800000000     0          
O303     O      0.548200000000     0.548200000000     0.874000000000     0          
C304     C      0.577700000000     0.577700000000     0.886600000000     0          
O305     O      0.587700000000     0.587700000000     0.928700000000     0          
C306     C      0.602900000000     0.602900000000     0.848100000000     0          
C307     C      0.635700000000     0.635700000000     0.855500000000     0          
C308     C      0.591300000000     0.591300000000     0.800500000000     0          
H309     H      0.643300000000     0.643300000000     0.887400000000     0          
C310     C      0.659500000000     0.659500000000     0.819700000000     0          
C311     C      0.614400000000     0.614400000000     0.765000000000     0          
H312     H      0.568000000000     0.568000000000     0.793600000000     0          
H313     H      0.682700000000     0.682700000000     0.827300000000     0          
C314     C      0.649300000000     0.649300000000     0.773500000000     0          
H315     H      0.606700000000     0.606700000000     0.733100000000     0          
C316     C      0.672800000000     0.672800000000     0.733100000000     0          
O317     O      0.451800000000     0.548200000000     0.126000000000     0          
C318     C      0.422300000000     0.577700000000     0.113400000000     0          
O319     O      0.412300000000     0.587700000000     0.071300000000     0          
C320     C      0.397100000000     0.602900000000     0.151900000000     0          
C321     C      0.364300000000     0.635700000000     0.144500000000     0          
C322     C      0.408700000000     0.591300000000     0.199500000000     0          
H323     H      0.356700000000     0.643300000000     0.112600000000     0          
C324     C      0.340500000000     0.659500000000     0.180300000000     0          
C325     C      0.385600000000     0.614400000000     0.235000000000     0          
H326     H      0.432000000000     0.568000000000     0.206400000000     0          
H327     H      0.317300000000     0.682700000000     0.172700000000     0          
C328     C      0.350700000000     0.649300000000     0.226500000000     0          
H329     H      0.393300000000     0.606700000000     0.266900000000     0          
C330     C      0.327200000000     0.672800000000     0.266900000000     0          
O331     O      0.451800000000     0.451800000000     0.874000000000     0          
C332     C      0.422300000000     0.422300000000     0.886600000000     0          
O333     O      0.412300000000     0.412300000000     0.928700000000     0          
C334     C      0.397100000000     0.397100000000     0.848100000000     0          
C335     C      0.364300000000     0.364300000000     0.855500000000     0          
C336     C      0.408700000000     0.408700000000     0.800500000000     0          
H337     H      0.356700000000     0.356700000000     0.887400000000     0          
C338     C      0.340500000000     0.340500000000     0.819700000000     0          
C339     C      0.385600000000     0.385600000000     0.765000000000     0          
H340     H      0.432000000000     0.432000000000     0.793600000000     0          
H341     H      0.317300000000     0.317300000000     0.827300000000     0          
C342     C      0.350700000000     0.350700000000     0.773500000000     0          
H343     H      0.393300000000     0.393300000000     0.733100000000     0          
C344     C      0.327200000000     0.327200000000     0.733100000000     0          
O345     O      0.548200000000     0.451800000000     0.126000000000     0          
C346     C      0.577700000000     0.422300000000     0.113400000000     0          
O347     O      0.587700000000     0.412300000000     0.071300000000     0          
C348     C      0.602900000000     0.397100000000     0.151900000000     0          
C349     C      0.635700000000     0.364300000000     0.144500000000     0          
C350     C      0.591300000000     0.408700000000     0.199500000000     0          
H351     H      0.643300000000     0.356700000000     0.112600000000     0          
C352     C      0.659500000000     0.340500000000     0.180300000000     0          
C353     C      0.614400000000     0.385600000000     0.235000000000     0          
H354     H      0.568000000000     0.432000000000     0.206400000000     0          
H355     H      0.682700000000     0.317300000000     0.172700000000     0          
C356     C      0.649300000000     0.350700000000     0.226500000000     0          
H357     H      0.606700000000     0.393300000000     0.266900000000     0          
C358     C      0.672800000000     0.327200000000     0.266900000000     0          
O359     O      0.548200000000     0.126000000000     0.451800000000     0          
C360     C      0.577700000000     0.113400000000     0.422300000000     0          
O361     O      0.587700000000     0.071300000000     0.412300000000     0          
C362     C      0.602900000000     0.151900000000     0.397100000000     0          
C363     C      0.635700000000     0.144500000000     0.364300000000     0          
C364     C      0.591300000000     0.199500000000     0.408700000000     0          
H365     H      0.643300000000     0.112600000000     0.356700000000     0          
C366     C      0.659500000000     0.180300000000     0.340500000000     0          
C367     C      0.614400000000     0.235000000000     0.385600000000     0          
H368     H      0.568000000000     0.206400000000     0.432000000000     0          
H369     H      0.682700000000     0.172700000000     0.317300000000     0          
C370     C      0.649300000000     0.226500000000     0.350700000000     0          
H371     H      0.606700000000     0.266900000000     0.393300000000     0          
C372     C      0.672800000000     0.266900000000     0.327200000000     0          
O373     O      0.548200000000     0.874000000000     0.548200000000     0          
C374     C      0.577700000000     0.886600000000     0.577700000000     0          
O375     O      0.587700000000     0.928700000000     0.587700000000     0          
C376     C      0.602900000000     0.848100000000     0.602900000000     0          
C377     C      0.635700000000     0.855500000000     0.635700000000     0          
C378     C      0.591300000000     0.800500000000     0.591300000000     0          
H379     H      0.643300000000     0.887400000000     0.643300000000     0          
C380     C      0.659500000000     0.819700000000     0.659500000000     0          
C381     C      0.614400000000     0.765000000000     0.614400000000     0          
H382     H      0.568000000000     0.793600000000     0.568000000000     0          
H383     H      0.682700000000     0.827300000000     0.682700000000     0          
C384     C      0.649300000000     0.773500000000     0.649300000000     0          
H385     H      0.606700000000     0.733100000000     0.606700000000     0          
C386     C      0.672800000000     0.733100000000     0.672800000000     0          
O387     O      0.451800000000     0.126000000000     0.548200000000     0          
C388     C      0.422300000000     0.113400000000     0.577700000000     0          
O389     O      0.412300000000     0.071300000000     0.587700000000     0          
C390     C      0.397100000000     0.151900000000     0.602900000000     0          
C391     C      0.364300000000     0.144500000000     0.635700000000     0          
C392     C      0.408700000000     0.199500000000     0.591300000000     0          
H393     H      0.356700000000     0.112600000000     0.643300000000     0          
C394     C      0.340500000000     0.180300000000     0.659500000000     0          
C395     C      0.385600000000     0.235000000000     0.614400000000     0          
H396     H      0.432000000000     0.206400000000     0.568000000000     0          
H397     H      0.317300000000     0.172700000000     0.682700000000     0          
C398     C      0.350700000000     0.226500000000     0.649300000000     0          
H399     H      0.393300000000     0.266900000000     0.606700000000     0          
C400     C      0.327200000000     0.266900000000     0.672800000000     0          
O401     O      0.451800000000     0.874000000000     0.451800000000     0          
C402     C      0.422300000000     0.886600000000     0.422300000000     0          
O403     O      0.412300000000     0.928700000000     0.412300000000     0          
C404     C      0.397100000000     0.848100000000     0.397100000000     0          
C405     C      0.364300000000     0.855500000000     0.364300000000     0          
C406     C      0.408700000000     0.800500000000     0.408700000000     0          
H407     H      0.356700000000     0.887400000000     0.356700000000     0          
C408     C      0.340500000000     0.819700000000     0.340500000000     0          
C409     C      0.385600000000     0.765000000000     0.385600000000     0          
H410     H      0.432000000000     0.793600000000     0.432000000000     0          
H411     H      0.317300000000     0.827300000000     0.317300000000     0          
C412     C      0.350700000000     0.773500000000     0.350700000000     0          
H413     H      0.393300000000     0.733100000000     0.393300000000     0          
C414     C      0.327200000000     0.733100000000     0.327200000000     0          
O415     O      0.500000000000     0.043200000000     0.436800000000     0          
O416     O      0.500000000000     0.079400000000     0.319800000000     0          
O417     O      0.500000000000     0.956800000000     0.436800000000     0          
O418     O      0.500000000000     0.920600000000     0.319800000000     0          
O419     O      0.500000000000     0.043200000000     0.563200000000     0          
O420     O      0.500000000000     0.079400000000     0.680200000000     0          
O421     O      0.500000000000     0.956800000000     0.563200000000     0          
O422     O      0.500000000000     0.920600000000     0.680200000000     0          
O423     O      0.436800000000     0.500000000000     0.043200000000     0          
O424     O      0.319800000000     0.500000000000     0.079400000000     0          
O425     O      0.436800000000     0.500000000000     0.956800000000     0          
O426     O      0.319800000000     0.500000000000     0.920600000000     0          
O427     O      0.563200000000     0.500000000000     0.043200000000     0          
O428     O      0.680200000000     0.500000000000     0.079400000000     0          
O429     O      0.563200000000     0.500000000000     0.956800000000     0          
O430     O      0.680200000000     0.500000000000     0.920600000000     0          
O431     O      0.043200000000     0.436800000000     0.500000000000     0          
O432     O      0.079400000000     0.319800000000     0.500000000000     0          
O433     O      0.956800000000     0.436800000000     0.500000000000     0          
O434     O      0.920600000000     0.319800000000     0.500000000000     0          
O435     O      0.043200000000     0.563200000000     0.500000000000     0          
O436     O      0.079400000000     0.680200000000     0.500000000000     0          
O437     O      0.956800000000     0.563200000000     0.500000000000     0          
O438     O      0.920600000000     0.680200000000     0.500000000000     0          
O439     O      0.043200000000     0.500000000000     0.563200000000     0          
O440     O      0.079400000000     0.500000000000     0.680200000000     0          
O441     O      0.956800000000     0.500000000000     0.563200000000     0          
O442     O      0.920600000000     0.500000000000     0.680200000000     0          
O443     O      0.043200000000     0.500000000000     0.436800000000     0          
O444     O      0.079400000000     0.500000000000     0.319800000000     0          
O445     O      0.956800000000     0.500000000000     0.436800000000     0          
O446     O      0.920600000000     0.500000000000     0.319800000000     0          
O447     O      0.500000000000     0.436800000000     0.956800000000     0          
O448     O      0.500000000000     0.319800000000     0.920600000000     0          
O449     O      0.500000000000     0.436800000000     0.043200000000     0          
O450     O      0.500000000000     0.319800000000     0.079400000000     0          
O451     O      0.500000000000     0.563200000000     0.956800000000     0          
O452     O      0.500000000000     0.680200000000     0.920600000000     0          
O453     O      0.500000000000     0.563200000000     0.043200000000     0          
O454     O      0.500000000000     0.680200000000     0.079400000000     0          
O455     O      0.436800000000     0.043200000000     0.500000000000     0          
O456     O      0.319800000000     0.079400000000     0.500000000000     0          
O457     O      0.436800000000     0.956800000000     0.500000000000     0          
O458     O      0.319800000000     0.920600000000     0.500000000000     0          
O459     O      0.563200000000     0.043200000000     0.500000000000     0          
O460     O      0.680200000000     0.079400000000     0.500000000000     0          
O461     O      0.563200000000     0.956800000000     0.500000000000     0          
O462     O      0.680200000000     0.920600000000     0.500000000000     0          
Zr463    Zr     0.437380000000     0.000000000000     0.437380000000     0          
Zr464    Zr     0.562620000000     0.000000000000     0.437380000000     0          
Zr465    Zr     0.562620000000     0.000000000000     0.562620000000     0          
Zr466    Zr     0.437380000000     0.000000000000     0.562620000000     0          
Zr467    Zr     0.437380000000     0.437380000000     0.000000000000     0          
Zr468    Zr     0.437380000000     0.562620000000     0.000000000000     0          
Zr469    Zr     0.562620000000     0.562620000000     0.000000000000     0          
Zr470    Zr     0.562620000000     0.437380000000     0.000000000000     0          
Zr471    Zr     0.000000000000     0.437380000000     0.437380000000     0          
Zr472    Zr     0.000000000000     0.437380000000     0.562620000000     0          
Zr473    Zr     0.000000000000     0.562620000000     0.562620000000     0          
Zr474    Zr     0.000000000000     0.562620000000     0.437380000000     0          
O475     O      0.444500000000     0.000000000000     0.362400000000     0          
O476     O      0.440600000000     0.000000000000     0.267700000000     0          
O477     O      0.555500000000     0.000000000000     0.362400000000     0          
O478     O      0.559400000000     0.000000000000     0.267700000000     0          
O479     O      0.555500000000     0.000000000000     0.637600000000     0          
O480     O      0.559400000000     0.000000000000     0.732300000000     0          
O481     O      0.444500000000     0.000000000000     0.637600000000     0          
O482     O      0.440600000000     0.000000000000     0.732300000000     0          
O483     O      0.362400000000     0.444500000000     0.000000000000     0          
O484     O      0.267700000000     0.440600000000     0.000000000000     0          
O485     O      0.362400000000     0.555500000000     0.000000000000     0          
O486     O      0.267700000000     0.559400000000     0.000000000000     0          
O487     O      0.637600000000     0.555500000000     0.000000000000     0          
O488     O      0.732300000000     0.559400000000     0.000000000000     0          
O489     O      0.637600000000     0.444500000000     0.000000000000     0          
O490     O      0.732300000000     0.440600000000     0.000000000000     0          
O491     O      0.000000000000     0.362400000000     0.444500000000     0          
O492     O      0.000000000000     0.267700000000     0.440600000000     0          
O493     O      0.000000000000     0.362400000000     0.555500000000     0          
O494     O      0.000000000000     0.267700000000     0.559400000000     0          
O495     O      0.000000000000     0.637600000000     0.555500000000     0          
O496     O      0.000000000000     0.732300000000     0.559400000000     0          
O497     O      0.000000000000     0.637600000000     0.444500000000     0          
O498     O      0.000000000000     0.732300000000     0.440600000000     0          
O499     O      0.000000000000     0.444500000000     0.637600000000     0          
O500     O      0.000000000000     0.440600000000     0.732300000000     0          
O501     O      0.000000000000     0.555500000000     0.637600000000     0          
O502     O      0.000000000000     0.559400000000     0.732300000000     0          
O503     O      0.000000000000     0.555500000000     0.362400000000     0          
O504     O      0.000000000000     0.559400000000     0.267700000000     0          
O505     O      0.000000000000     0.444500000000     0.362400000000     0          
O506     O      0.000000000000     0.440600000000     0.267700000000     0          
O507     O      0.444500000000     0.362400000000     0.000000000000     0          
O508     O      0.440600000000     0.267700000000     0.000000000000     0          
O509     O      0.555500000000     0.362400000000     0.000000000000     0          
O510     O      0.559400000000     0.267700000000     0.000000000000     0          
O511     O      0.555500000000     0.637600000000     0.000000000000     0          
O512     O      0.559400000000     0.732300000000     0.000000000000     0          
O513     O      0.444500000000     0.637600000000     0.000000000000     0          
O514     O      0.440600000000     0.732300000000     0.000000000000     0          
O515     O      0.362400000000     0.000000000000     0.555500000000     0          
O516     O      0.267700000000     0.000000000000     0.559400000000     0          
O517     O      0.362400000000     0.000000000000     0.444500000000     0          
O518     O      0.267700000000     0.000000000000     0.440600000000     0          
O519     O      0.637600000000     0.000000000000     0.444500000000     0          
O520     O      0.732300000000     0.000000000000     0.440600000000     0          
O521     O      0.637600000000     0.000000000000     0.555500000000     0          
O522     O      0.732300000000     0.000000000000     0.559400000000     0          
Ti523    Ti     0.500000000000     0.000000000000     0.326900000000     0          
Ti524    Ti     0.500000000000     0.000000000000     0.673100000000     0          
Ti525    Ti     0.326900000000     0.500000000000     0.000000000000     0          
Ti526    Ti     0.673100000000     0.500000000000     0.000000000000     0          
Ti527    Ti     0.000000000000     0.326900000000     0.500000000000     0          
Ti528    Ti     0.000000000000     0.673100000000     0.500000000000     0          
Ti529    Ti     0.000000000000     0.500000000000     0.673100000000     0          
Ti530    Ti     0.000000000000     0.500000000000     0.326900000000     0          
Ti531    Ti     0.500000000000     0.326900000000     0.000000000000     0          
Ti532    Ti     0.500000000000     0.673100000000     0.000000000000     0          
Ti533    Ti     0.326900000000     0.000000000000     0.500000000000     0          
Ti534    Ti     0.673100000000     0.000000000000     0.500000000000     0          
C535     C      0.712800000000     0.287200000000     0.653400000000     0          
C536     C      0.734500000000     0.265500000000     0.606600000000     0          
C537     C      0.287200000000     0.712800000000     0.653400000000     0          
C538     C      0.265500000000     0.734500000000     0.606600000000     0          
C539     C      0.287200000000     0.287200000000     0.346600000000     0          
C540     C      0.265500000000     0.265500000000     0.393400000000     0          
C541     C      0.712800000000     0.712800000000     0.346600000000     0          
C542     C      0.734500000000     0.734500000000     0.393400000000     0          
C543     C      0.653400000000     0.712800000000     0.287200000000     0          
C544     C      0.606600000000     0.734500000000     0.265500000000     0          
C545     C      0.653400000000     0.287200000000     0.712800000000     0          
C546     C      0.606600000000     0.265500000000     0.734500000000     0          
C547     C      0.346600000000     0.287200000000     0.287200000000     0          
C548     C      0.393400000000     0.265500000000     0.265500000000     0          
C549     C      0.346600000000     0.712800000000     0.712800000000     0          
C550     C      0.393400000000     0.734500000000     0.734500000000     0          
C551     C      0.287200000000     0.653400000000     0.712800000000     0          
C552     C      0.265500000000     0.606600000000     0.734500000000     0          
C553     C      0.712800000000     0.653400000000     0.287200000000     0          
C554     C      0.734500000000     0.606600000000     0.265500000000     0          
C555     C      0.287200000000     0.346600000000     0.287200000000     0          
C556     C      0.265500000000     0.393400000000     0.265500000000     0          
C557     C      0.712800000000     0.346600000000     0.712800000000     0          
C558     C      0.734500000000     0.393400000000     0.734500000000     0          
C559     C      0.287200000000     0.712800000000     0.346600000000     0          
C560     C      0.265500000000     0.734500000000     0.393400000000     0          
C561     C      0.712800000000     0.287200000000     0.346600000000     0          
C562     C      0.734500000000     0.265500000000     0.393400000000     0          
C563     C      0.287200000000     0.287200000000     0.653400000000     0          
C564     C      0.265500000000     0.265500000000     0.606600000000     0          
C565     C      0.712800000000     0.712800000000     0.653400000000     0          
C566     C      0.734500000000     0.734500000000     0.606600000000     0          
C567     C      0.712800000000     0.653400000000     0.712800000000     0          
C568     C      0.734500000000     0.606600000000     0.734500000000     0          
C569     C      0.287200000000     0.653400000000     0.287200000000     0          
C570     C      0.265500000000     0.606600000000     0.265500000000     0          
C571     C      0.287200000000     0.346600000000     0.712800000000     0          
C572     C      0.265500000000     0.393400000000     0.734500000000     0          
C573     C      0.712800000000     0.346600000000     0.287200000000     0          
C574     C      0.734500000000     0.393400000000     0.265500000000     0          
C575     C      0.653400000000     0.287200000000     0.287200000000     0          
C576     C      0.606600000000     0.265500000000     0.265500000000     0          
C577     C      0.653400000000     0.712800000000     0.712800000000     0          
C578     C      0.606600000000     0.734500000000     0.734500000000     0          
C579     C      0.346600000000     0.287200000000     0.712800000000     0          
C580     C      0.393400000000     0.265500000000     0.734500000000     0          
C581     C      0.346600000000     0.712800000000     0.287200000000     0          
C582     C      0.393400000000     0.734500000000     0.265500000000     0          


