data_EWETOR

_audit_creation_method RASPA-1.0
_audit_creation_date 2020-11-2
_audit_author_name 'Rocio Bueno-Perez'

_cell_length_a    38.741
_cell_length_b    38.741
_cell_length_c    38.741
_cell_angle_alpha 90
_cell_angle_beta  90
_cell_angle_gamma 90
_cell_volume      58145

_symmetry_cell_setting          triclinic
_symmetry_space_group_name_Hall 'P 1'
_symmetry_space_group_name_H-M  'P 1'
_symmetry_Int_Tables_number     1

_symmetry_equiv_pos_as_xyz 'x,y,z'

loop_
_atom_site_label
_atom_site_type_symbol
_atom_site_fract_x
_atom_site_fract_y
_atom_site_fract_z
_atom_site_charge
N1       N      0.725700000000     0.988500000000     0.227700000000     0          
C2       C      0.726000000000     0.909600000000     0.224300000000     0          
C3       C      0.700400000000     0.984700000000     0.202700000000     0          
O4       O      0.713100000000     0.886100000000     0.210300000000     0          
C5       C      0.719500000000     0.050300000000     0.224700000000     0          
C6       C      0.694100000000     0.046500000000     0.199600000000     0          
C7       C      0.657500000000     0.013000000000     0.160700000000     0          
C8       C      0.667400000000     0.011800000000     0.126300000000     0          
C9       C      0.622600000000     0.013300000000     0.169400000000     0          
C10      C      0.642500000000     0.011100000000     0.100400000000     0          
C11      C      0.597700000000     0.012500000000     0.143500000000     0          
C12      C      0.607700000000     0.011400000000     0.109100000000     0          
C13      C      0.580900000000     0.005000000000     0.080700000000     0          
O14      O      0.593500000000     0.003600000000     0.047600000000     0          
O15      O      0.548300000000     0.002500000000     0.093700000000     0          
C16      C      0.683200000000     0.015000000000     0.187700000000     0          
C17      C      0.735100000000     0.017600000000     0.237200000000     0          
Cl18     Cl     0.714200000000     0.962500000000     0.287100000000     0          
H19      H      0.619210000000     0.804040000000     0.988610000000     0          
H20      H      0.697670000000     0.885510000000     0.985800000000     0          
H21      H      0.572150000000     0.849320000000     0.989720000000     0          
H22      H      0.650540000000     0.930870000000     0.987250000000     0          
H23      H      0.692700000000     0.457820000000     0.693530000000     0          
H24      H      0.726920000000     0.577150000000     0.734180000000     0          
H25      H      0.681290000000     0.570270000000     0.687910000000     0          
N26      N      0.725700000000     0.488500000000     0.727700000000     0          
C27      C      0.726000000000     0.409600000000     0.724300000000     0          
C28      C      0.700400000000     0.484700000000     0.702700000000     0          
O29      O      0.713100000000     0.386100000000     0.710300000000     0          
C30      C      0.719500000000     0.550300000000     0.724700000000     0          
C31      C      0.694100000000     0.546500000000     0.699600000000     0          
C32      C      0.657500000000     0.513000000000     0.660700000000     0          
C33      C      0.667400000000     0.511800000000     0.626300000000     0          
C34      C      0.622600000000     0.513300000000     0.669400000000     0          
C35      C      0.642500000000     0.511100000000     0.600400000000     0          
C36      C      0.597700000000     0.512500000000     0.643500000000     0          
C37      C      0.607700000000     0.511400000000     0.609100000000     0          
C38      C      0.580900000000     0.505000000000     0.580700000000     0          
O39      O      0.593500000000     0.503600000000     0.547600000000     0          
O40      O      0.548300000000     0.502500000000     0.593700000000     0          
C41      C      0.683200000000     0.515000000000     0.687700000000     0          
C42      C      0.735100000000     0.517600000000     0.737200000000     0          
Cl43     Cl     0.714200000000     0.462500000000     0.787100000000     0          
H44      H      0.619210000000     0.304040000000     0.488610000000     0          
H45      H      0.697670000000     0.385510000000     0.485800000000     0          
H46      H      0.572150000000     0.349320000000     0.489720000000     0          
H47      H      0.650540000000     0.430870000000     0.487250000000     0          
H48      H      0.692700000000     0.957820000000     0.193530000000     0          
H49      H      0.726920000000     0.077150000000     0.234180000000     0          
H50      H      0.681290000000     0.070270000000     0.187910000000     0          
N51      N      0.225700000000     0.988500000000     0.727700000000     0          
C52      C      0.226000000000     0.909600000000     0.724300000000     0          
C53      C      0.200400000000     0.984700000000     0.702700000000     0          
O54      O      0.213100000000     0.886100000000     0.710300000000     0          
C55      C      0.219500000000     0.050300000000     0.724700000000     0          
C56      C      0.194100000000     0.046500000000     0.699600000000     0          
C57      C      0.157500000000     0.013000000000     0.660700000000     0          
C58      C      0.167400000000     0.011800000000     0.626300000000     0          
C59      C      0.122600000000     0.013300000000     0.669400000000     0          
C60      C      0.142500000000     0.011100000000     0.600400000000     0          
C61      C      0.097700000000     0.012500000000     0.643500000000     0          
C62      C      0.107700000000     0.011400000000     0.609100000000     0          
C63      C      0.080900000000     0.005000000000     0.580700000000     0          
O64      O      0.093500000000     0.003600000000     0.547600000000     0          
O65      O      0.048300000000     0.002500000000     0.593700000000     0          
C66      C      0.183200000000     0.015000000000     0.687700000000     0          
C67      C      0.235100000000     0.017600000000     0.737200000000     0          
Cl68     Cl     0.214200000000     0.962500000000     0.787100000000     0          
H69      H      0.119210000000     0.804040000000     0.488610000000     0          
H70      H      0.197670000000     0.885510000000     0.485800000000     0          
H71      H      0.072150000000     0.849320000000     0.489720000000     0          
H72      H      0.150540000000     0.930870000000     0.487250000000     0          
H73      H      0.192700000000     0.457820000000     0.193530000000     0          
H74      H      0.226920000000     0.577150000000     0.234180000000     0          
H75      H      0.181290000000     0.570270000000     0.187910000000     0          
N76      N      0.225700000000     0.488500000000     0.227700000000     0          
C77      C      0.226000000000     0.409600000000     0.224300000000     0          
C78      C      0.200400000000     0.484700000000     0.202700000000     0          
O79      O      0.213100000000     0.386100000000     0.210300000000     0          
C80      C      0.219500000000     0.550300000000     0.224700000000     0          
C81      C      0.194100000000     0.546500000000     0.199600000000     0          
C82      C      0.157500000000     0.513000000000     0.160700000000     0          
C83      C      0.167400000000     0.511800000000     0.126300000000     0          
C84      C      0.122600000000     0.513300000000     0.169400000000     0          
C85      C      0.142500000000     0.511100000000     0.100400000000     0          
C86      C      0.097700000000     0.512500000000     0.143500000000     0          
C87      C      0.107700000000     0.511400000000     0.109100000000     0          
C88      C      0.080900000000     0.505000000000     0.080700000000     0          
O89      O      0.093500000000     0.503600000000     0.047600000000     0          
O90      O      0.048300000000     0.502500000000     0.093700000000     0          
C91      C      0.183200000000     0.515000000000     0.187700000000     0          
C92      C      0.235100000000     0.517600000000     0.237200000000     0          
Cl93     Cl     0.214200000000     0.462500000000     0.287100000000     0          
H94      H      0.119210000000     0.304040000000     0.988610000000     0          
H95      H      0.197670000000     0.385510000000     0.985800000000     0          
H96      H      0.072150000000     0.349320000000     0.989720000000     0          
H97      H      0.150540000000     0.430870000000     0.987250000000     0          
H98      H      0.192700000000     0.957820000000     0.693530000000     0          
H99      H      0.226920000000     0.077150000000     0.734180000000     0          
H100     H      0.181290000000     0.070270000000     0.687910000000     0          
N101     N      0.274300000000     0.011500000000     0.227700000000     0          
C102     C      0.274000000000     0.090400000000     0.224300000000     0          
C103     C      0.299600000000     0.015300000000     0.202700000000     0          
O104     O      0.286900000000     0.113900000000     0.210300000000     0          
C105     C      0.280500000000     0.949700000000     0.224700000000     0          
C106     C      0.305900000000     0.953500000000     0.199600000000     0          
C107     C      0.342500000000     0.987000000000     0.160700000000     0          
C108     C      0.332600000000     0.988200000000     0.126300000000     0          
C109     C      0.377400000000     0.986700000000     0.169400000000     0          
C110     C      0.357500000000     0.988900000000     0.100400000000     0          
C111     C      0.402300000000     0.987500000000     0.143500000000     0          
C112     C      0.392300000000     0.988600000000     0.109100000000     0          
C113     C      0.419100000000     0.995000000000     0.080700000000     0          
O114     O      0.406500000000     0.996400000000     0.047600000000     0          
O115     O      0.451700000000     0.997500000000     0.093700000000     0          
C116     C      0.316800000000     0.985000000000     0.187700000000     0          
C117     C      0.264900000000     0.982400000000     0.237200000000     0          
C118     C      0.287100000000     0.064100000000     0.281700000000     0          
O119     O      0.309000000000     0.068000000000     0.301200000000     0          
H120     H      0.380790000000     0.195960000000     0.988610000000     0          
H121     H      0.302330000000     0.114490000000     0.985800000000     0          
H122     H      0.427850000000     0.150680000000     0.989720000000     0          
H123     H      0.349460000000     0.069130000000     0.987250000000     0          
H124     H      0.307300000000     0.542180000000     0.693530000000     0          
H125     H      0.273080000000     0.422850000000     0.734180000000     0          
H126     H      0.318710000000     0.429730000000     0.687910000000     0          
N127     N      0.274300000000     0.511500000000     0.727700000000     0          
C128     C      0.274000000000     0.590400000000     0.724300000000     0          
C129     C      0.299600000000     0.515300000000     0.702700000000     0          
O130     O      0.286900000000     0.613900000000     0.710300000000     0          
C131     C      0.280500000000     0.449700000000     0.724700000000     0          
C132     C      0.305900000000     0.453500000000     0.699600000000     0          
C133     C      0.342500000000     0.487000000000     0.660700000000     0          
C134     C      0.332600000000     0.488200000000     0.626300000000     0          
C135     C      0.377400000000     0.486700000000     0.669400000000     0          
C136     C      0.357500000000     0.488900000000     0.600400000000     0          
C137     C      0.402300000000     0.487500000000     0.643500000000     0          
C138     C      0.392300000000     0.488600000000     0.609100000000     0          
C139     C      0.419100000000     0.495000000000     0.580700000000     0          
O140     O      0.406500000000     0.496400000000     0.547600000000     0          
O141     O      0.451700000000     0.497500000000     0.593700000000     0          
C142     C      0.316800000000     0.485000000000     0.687700000000     0          
C143     C      0.264900000000     0.482400000000     0.737200000000     0          
C144     C      0.287100000000     0.564100000000     0.781700000000     0          
O145     O      0.309000000000     0.568000000000     0.801200000000     0          
H146     H      0.380790000000     0.695960000000     0.488610000000     0          
H147     H      0.302330000000     0.614490000000     0.485800000000     0          
H148     H      0.427850000000     0.650680000000     0.489720000000     0          
H149     H      0.349460000000     0.569130000000     0.487250000000     0          
H150     H      0.307300000000     0.042180000000     0.193530000000     0          
H151     H      0.273080000000     0.922850000000     0.234180000000     0          
H152     H      0.318710000000     0.929730000000     0.187910000000     0          
N153     N      0.774300000000     0.011500000000     0.727700000000     0          
C154     C      0.774000000000     0.090400000000     0.724300000000     0          
C155     C      0.799600000000     0.015300000000     0.702700000000     0          
O156     O      0.786900000000     0.113900000000     0.710300000000     0          
C157     C      0.780500000000     0.949700000000     0.724700000000     0          
C158     C      0.805900000000     0.953500000000     0.699600000000     0          
C159     C      0.842500000000     0.987000000000     0.660700000000     0          
C160     C      0.832600000000     0.988200000000     0.626300000000     0          
C161     C      0.877400000000     0.986700000000     0.669400000000     0          
C162     C      0.857500000000     0.988900000000     0.600400000000     0          
C163     C      0.902300000000     0.987500000000     0.643500000000     0          
C164     C      0.892300000000     0.988600000000     0.609100000000     0          
C165     C      0.919100000000     0.995000000000     0.580700000000     0          
O166     O      0.906500000000     0.996400000000     0.547600000000     0          
O167     O      0.951700000000     0.997500000000     0.593700000000     0          
C168     C      0.816800000000     0.985000000000     0.687700000000     0          
C169     C      0.764900000000     0.982400000000     0.737200000000     0          
C170     C      0.787100000000     0.064100000000     0.781700000000     0          
O171     O      0.809000000000     0.068000000000     0.801200000000     0          
H172     H      0.880790000000     0.195960000000     0.488610000000     0          
H173     H      0.802330000000     0.114490000000     0.485800000000     0          
H174     H      0.927850000000     0.150680000000     0.489720000000     0          
H175     H      0.849460000000     0.069130000000     0.487250000000     0          
H176     H      0.807300000000     0.542180000000     0.193530000000     0          
H177     H      0.773080000000     0.422850000000     0.234180000000     0          
H178     H      0.818710000000     0.429730000000     0.187910000000     0          
N179     N      0.774300000000     0.511500000000     0.227700000000     0          
C180     C      0.774000000000     0.590400000000     0.224300000000     0          
C181     C      0.799600000000     0.515300000000     0.202700000000     0          
O182     O      0.786900000000     0.613900000000     0.210300000000     0          
C183     C      0.780500000000     0.449700000000     0.224700000000     0          
C184     C      0.805900000000     0.453500000000     0.199600000000     0          
C185     C      0.842500000000     0.487000000000     0.160700000000     0          
C186     C      0.832600000000     0.488200000000     0.126300000000     0          
C187     C      0.877400000000     0.486700000000     0.169400000000     0          
C188     C      0.857500000000     0.488900000000     0.100400000000     0          
C189     C      0.902300000000     0.487500000000     0.143500000000     0          
C190     C      0.892300000000     0.488600000000     0.109100000000     0          
C191     C      0.919100000000     0.495000000000     0.080700000000     0          
O192     O      0.906500000000     0.496400000000     0.047600000000     0          
O193     O      0.951700000000     0.497500000000     0.093700000000     0          
C194     C      0.816800000000     0.485000000000     0.187700000000     0          
C195     C      0.764900000000     0.482400000000     0.237200000000     0          
C196     C      0.787100000000     0.564100000000     0.281700000000     0          
O197     O      0.809000000000     0.568000000000     0.301200000000     0          
H198     H      0.880790000000     0.695960000000     0.988610000000     0          
H199     H      0.802330000000     0.614490000000     0.985800000000     0          
H200     H      0.927850000000     0.650680000000     0.989720000000     0          
H201     H      0.849460000000     0.569130000000     0.987250000000     0          
H202     H      0.807300000000     0.042180000000     0.693530000000     0          
H203     H      0.773080000000     0.922850000000     0.734180000000     0          
H204     H      0.818710000000     0.929730000000     0.687910000000     0          
N205     N      0.274300000000     0.988500000000     0.772300000000     0          
C206     C      0.274000000000     0.909600000000     0.775700000000     0          
C207     C      0.299600000000     0.984700000000     0.797300000000     0          
O208     O      0.286900000000     0.886100000000     0.789700000000     0          
C209     C      0.280500000000     0.050300000000     0.775300000000     0          
C210     C      0.305900000000     0.046500000000     0.800400000000     0          
C211     C      0.342500000000     0.013000000000     0.839300000000     0          
C212     C      0.332600000000     0.011800000000     0.873700000000     0          
C213     C      0.377400000000     0.013300000000     0.830600000000     0          
C214     C      0.357500000000     0.011100000000     0.899600000000     0          
C215     C      0.402300000000     0.012500000000     0.856500000000     0          
C216     C      0.392300000000     0.011400000000     0.890900000000     0          
C217     C      0.419100000000     0.005000000000     0.919300000000     0          
O218     O      0.406500000000     0.003600000000     0.952400000000     0          
O219     O      0.451700000000     0.002500000000     0.906300000000     0          
C220     C      0.316800000000     0.015000000000     0.812300000000     0          
C221     C      0.264900000000     0.017600000000     0.762800000000     0          
C222     C      0.287100000000     0.935900000000     0.718300000000     0          
O223     O      0.309000000000     0.932000000000     0.698800000000     0          
H224     H      0.380790000000     0.804040000000     0.011390000000     0          
H225     H      0.302330000000     0.885510000000     0.014200000000     0          
H226     H      0.427850000000     0.849320000000     0.010280000000     0          
H227     H      0.349460000000     0.930870000000     0.012750000000     0          
H228     H      0.307300000000     0.457820000000     0.306470000000     0          
H229     H      0.273080000000     0.577150000000     0.265820000000     0          
H230     H      0.318710000000     0.570270000000     0.312090000000     0          
N231     N      0.274300000000     0.488500000000     0.272300000000     0          
C232     C      0.274000000000     0.409600000000     0.275700000000     0          
C233     C      0.299600000000     0.484700000000     0.297300000000     0          
O234     O      0.286900000000     0.386100000000     0.289700000000     0          
C235     C      0.280500000000     0.550300000000     0.275300000000     0          
C236     C      0.305900000000     0.546500000000     0.300400000000     0          
C237     C      0.342500000000     0.513000000000     0.339300000000     0          
C238     C      0.332600000000     0.511800000000     0.373700000000     0          
C239     C      0.377400000000     0.513300000000     0.330600000000     0          
C240     C      0.357500000000     0.511100000000     0.399600000000     0          
C241     C      0.402300000000     0.512500000000     0.356500000000     0          
C242     C      0.392300000000     0.511400000000     0.390900000000     0          
C243     C      0.419100000000     0.505000000000     0.419300000000     0          
O244     O      0.406500000000     0.503600000000     0.452400000000     0          
O245     O      0.451700000000     0.502500000000     0.406300000000     0          
C246     C      0.316800000000     0.515000000000     0.312300000000     0          
C247     C      0.264900000000     0.517600000000     0.262800000000     0          
C248     C      0.287100000000     0.435900000000     0.218300000000     0          
O249     O      0.309000000000     0.432000000000     0.198800000000     0          
H250     H      0.380790000000     0.304040000000     0.511390000000     0          
H251     H      0.302330000000     0.385510000000     0.514200000000     0          
H252     H      0.427850000000     0.349320000000     0.510280000000     0          
H253     H      0.349460000000     0.430870000000     0.512750000000     0          
H254     H      0.307300000000     0.957820000000     0.806470000000     0          
H255     H      0.273080000000     0.077150000000     0.765820000000     0          
H256     H      0.318710000000     0.070270000000     0.812090000000     0          
N257     N      0.774300000000     0.988500000000     0.272300000000     0          
C258     C      0.774000000000     0.909600000000     0.275700000000     0          
C259     C      0.799600000000     0.984700000000     0.297300000000     0          
O260     O      0.786900000000     0.886100000000     0.289700000000     0          
C261     C      0.780500000000     0.050300000000     0.275300000000     0          
C262     C      0.805900000000     0.046500000000     0.300400000000     0          
C263     C      0.842500000000     0.013000000000     0.339300000000     0          
C264     C      0.832600000000     0.011800000000     0.373700000000     0          
C265     C      0.877400000000     0.013300000000     0.330600000000     0          
C266     C      0.857500000000     0.011100000000     0.399600000000     0          
C267     C      0.902300000000     0.012500000000     0.356500000000     0          
C268     C      0.892300000000     0.011400000000     0.390900000000     0          
C269     C      0.919100000000     0.005000000000     0.419300000000     0          
O270     O      0.906500000000     0.003600000000     0.452400000000     0          
O271     O      0.951700000000     0.002500000000     0.406300000000     0          
C272     C      0.816800000000     0.015000000000     0.312300000000     0          
C273     C      0.764900000000     0.017600000000     0.262800000000     0          
C274     C      0.787100000000     0.935900000000     0.218300000000     0          
O275     O      0.809000000000     0.932000000000     0.198800000000     0          
H276     H      0.880790000000     0.804040000000     0.511390000000     0          
H277     H      0.802330000000     0.885510000000     0.514200000000     0          
H278     H      0.927850000000     0.849320000000     0.510280000000     0          
H279     H      0.849460000000     0.930870000000     0.512750000000     0          
H280     H      0.807300000000     0.457820000000     0.806470000000     0          
H281     H      0.773080000000     0.577150000000     0.765820000000     0          
H282     H      0.818710000000     0.570270000000     0.812090000000     0          
N283     N      0.774300000000     0.488500000000     0.772300000000     0          
C284     C      0.774000000000     0.409600000000     0.775700000000     0          
C285     C      0.799600000000     0.484700000000     0.797300000000     0          
O286     O      0.786900000000     0.386100000000     0.789700000000     0          
C287     C      0.780500000000     0.550300000000     0.775300000000     0          
C288     C      0.805900000000     0.546500000000     0.800400000000     0          
C289     C      0.842500000000     0.513000000000     0.839300000000     0          
C290     C      0.832600000000     0.511800000000     0.873700000000     0          
C291     C      0.877400000000     0.513300000000     0.830600000000     0          
C292     C      0.857500000000     0.511100000000     0.899600000000     0          
C293     C      0.902300000000     0.512500000000     0.856500000000     0          
C294     C      0.892300000000     0.511400000000     0.890900000000     0          
C295     C      0.919100000000     0.505000000000     0.919300000000     0          
O296     O      0.906500000000     0.503600000000     0.952400000000     0          
O297     O      0.951700000000     0.502500000000     0.906300000000     0          
C298     C      0.816800000000     0.515000000000     0.812300000000     0          
C299     C      0.764900000000     0.517600000000     0.762800000000     0          
C300     C      0.787100000000     0.435900000000     0.718300000000     0          
O301     O      0.809000000000     0.432000000000     0.698800000000     0          
H302     H      0.880790000000     0.304040000000     0.011390000000     0          
H303     H      0.802330000000     0.385510000000     0.014200000000     0          
H304     H      0.927850000000     0.349320000000     0.010280000000     0          
H305     H      0.849460000000     0.430870000000     0.012750000000     0          
H306     H      0.807300000000     0.957820000000     0.306470000000     0          
H307     H      0.773080000000     0.077150000000     0.265820000000     0          
H308     H      0.818710000000     0.070270000000     0.312090000000     0          
N309     N      0.725700000000     0.011500000000     0.772300000000     0          
C310     C      0.726000000000     0.090400000000     0.775700000000     0          
C311     C      0.700400000000     0.015300000000     0.797300000000     0          
O312     O      0.713100000000     0.113900000000     0.789700000000     0          
C313     C      0.719500000000     0.949700000000     0.775300000000     0          
C314     C      0.694100000000     0.953500000000     0.800400000000     0          
C315     C      0.657500000000     0.987000000000     0.839300000000     0          
C316     C      0.667400000000     0.988200000000     0.873700000000     0          
C317     C      0.622600000000     0.986700000000     0.830600000000     0          
C318     C      0.642500000000     0.988900000000     0.899600000000     0          
C319     C      0.597700000000     0.987500000000     0.856500000000     0          
C320     C      0.607700000000     0.988600000000     0.890900000000     0          
C321     C      0.580900000000     0.995000000000     0.919300000000     0          
O322     O      0.593500000000     0.996400000000     0.952400000000     0          
O323     O      0.548300000000     0.997500000000     0.906300000000     0          
C324     C      0.683200000000     0.985000000000     0.812300000000     0          
C325     C      0.735100000000     0.982400000000     0.762800000000     0          
Cl326    Cl     0.714200000000     0.037500000000     0.712900000000     0          
H327     H      0.619210000000     0.195960000000     0.011390000000     0          
H328     H      0.697670000000     0.114490000000     0.014200000000     0          
H329     H      0.572150000000     0.150680000000     0.010280000000     0          
H330     H      0.650540000000     0.069130000000     0.012750000000     0          
H331     H      0.692700000000     0.542180000000     0.306470000000     0          
H332     H      0.726920000000     0.422850000000     0.265820000000     0          
H333     H      0.681290000000     0.429730000000     0.312090000000     0          
N334     N      0.725700000000     0.511500000000     0.272300000000     0          
C335     C      0.726000000000     0.590400000000     0.275700000000     0          
C336     C      0.700400000000     0.515300000000     0.297300000000     0          
O337     O      0.713100000000     0.613900000000     0.289700000000     0          
C338     C      0.719500000000     0.449700000000     0.275300000000     0          
C339     C      0.694100000000     0.453500000000     0.300400000000     0          
C340     C      0.657500000000     0.487000000000     0.339300000000     0          
C341     C      0.667400000000     0.488200000000     0.373700000000     0          
C342     C      0.622600000000     0.486700000000     0.330600000000     0          
C343     C      0.642500000000     0.488900000000     0.399600000000     0          
C344     C      0.597700000000     0.487500000000     0.356500000000     0          
C345     C      0.607700000000     0.488600000000     0.390900000000     0          
C346     C      0.580900000000     0.495000000000     0.419300000000     0          
O347     O      0.593500000000     0.496400000000     0.452400000000     0          
O348     O      0.548300000000     0.497500000000     0.406300000000     0          
C349     C      0.683200000000     0.485000000000     0.312300000000     0          
C350     C      0.735100000000     0.482400000000     0.262800000000     0          
Cl351    Cl     0.714200000000     0.537500000000     0.212900000000     0          
H352     H      0.619210000000     0.695960000000     0.511390000000     0          
H353     H      0.697670000000     0.614490000000     0.514200000000     0          
H354     H      0.572150000000     0.650680000000     0.510280000000     0          
H355     H      0.650540000000     0.569130000000     0.512750000000     0          
H356     H      0.692700000000     0.042180000000     0.806470000000     0          
H357     H      0.726920000000     0.922850000000     0.765820000000     0          
H358     H      0.681290000000     0.929730000000     0.812090000000     0          
N359     N      0.225700000000     0.011500000000     0.272300000000     0          
C360     C      0.226000000000     0.090400000000     0.275700000000     0          
C361     C      0.200400000000     0.015300000000     0.297300000000     0          
O362     O      0.213100000000     0.113900000000     0.289700000000     0          
C363     C      0.219500000000     0.949700000000     0.275300000000     0          
C364     C      0.194100000000     0.953500000000     0.300400000000     0          
C365     C      0.157500000000     0.987000000000     0.339300000000     0          
C366     C      0.167400000000     0.988200000000     0.373700000000     0          
C367     C      0.122600000000     0.986700000000     0.330600000000     0          
C368     C      0.142500000000     0.988900000000     0.399600000000     0          
C369     C      0.097700000000     0.987500000000     0.356500000000     0          
C370     C      0.107700000000     0.988600000000     0.390900000000     0          
C371     C      0.080900000000     0.995000000000     0.419300000000     0          
O372     O      0.093500000000     0.996400000000     0.452400000000     0          
O373     O      0.048300000000     0.997500000000     0.406300000000     0          
C374     C      0.183200000000     0.985000000000     0.312300000000     0          
C375     C      0.235100000000     0.982400000000     0.262800000000     0          
Cl376    Cl     0.214200000000     0.037500000000     0.212900000000     0          
H377     H      0.119210000000     0.195960000000     0.511390000000     0          
H378     H      0.197670000000     0.114490000000     0.514200000000     0          
H379     H      0.072150000000     0.150680000000     0.510280000000     0          
H380     H      0.150540000000     0.069130000000     0.512750000000     0          
H381     H      0.192700000000     0.542180000000     0.806470000000     0          
H382     H      0.226920000000     0.422850000000     0.765820000000     0          
H383     H      0.181290000000     0.429730000000     0.812090000000     0          
N384     N      0.225700000000     0.511500000000     0.772300000000     0          
C385     C      0.226000000000     0.590400000000     0.775700000000     0          
C386     C      0.200400000000     0.515300000000     0.797300000000     0          
O387     O      0.213100000000     0.613900000000     0.789700000000     0          
C388     C      0.219500000000     0.449700000000     0.775300000000     0          
C389     C      0.194100000000     0.453500000000     0.800400000000     0          
C390     C      0.157500000000     0.487000000000     0.839300000000     0          
C391     C      0.167400000000     0.488200000000     0.873700000000     0          
C392     C      0.122600000000     0.486700000000     0.830600000000     0          
C393     C      0.142500000000     0.488900000000     0.899600000000     0          
C394     C      0.097700000000     0.487500000000     0.856500000000     0          
C395     C      0.107700000000     0.488600000000     0.890900000000     0          
C396     C      0.080900000000     0.495000000000     0.919300000000     0          
O397     O      0.093500000000     0.496400000000     0.952400000000     0          
O398     O      0.048300000000     0.497500000000     0.906300000000     0          
C399     C      0.183200000000     0.485000000000     0.812300000000     0          
C400     C      0.235100000000     0.482400000000     0.762800000000     0          
Cl401    Cl     0.214200000000     0.537500000000     0.712900000000     0          
H402     H      0.119210000000     0.695960000000     0.011390000000     0          
H403     H      0.197670000000     0.614490000000     0.014200000000     0          
H404     H      0.072150000000     0.650680000000     0.010280000000     0          
H405     H      0.150540000000     0.569130000000     0.012750000000     0          
H406     H      0.192700000000     0.042180000000     0.306470000000     0          
H407     H      0.226920000000     0.922850000000     0.265820000000     0          
H408     H      0.181290000000     0.929730000000     0.312090000000     0          
N409     N      0.227700000000     0.725700000000     0.988500000000     0          
C410     C      0.224300000000     0.726000000000     0.909600000000     0          
C411     C      0.202700000000     0.700400000000     0.984700000000     0          
O412     O      0.210300000000     0.713100000000     0.886100000000     0          
C413     C      0.224700000000     0.719500000000     0.050300000000     0          
C414     C      0.199600000000     0.694100000000     0.046500000000     0          
C415     C      0.160700000000     0.657500000000     0.013000000000     0          
C416     C      0.126300000000     0.667400000000     0.011800000000     0          
C417     C      0.169400000000     0.622600000000     0.013300000000     0          
C418     C      0.100400000000     0.642500000000     0.011100000000     0          
C419     C      0.143500000000     0.597700000000     0.012500000000     0          
C420     C      0.109100000000     0.607700000000     0.011400000000     0          
C421     C      0.080700000000     0.580900000000     0.005000000000     0          
O422     O      0.047600000000     0.593500000000     0.003600000000     0          
O423     O      0.093700000000     0.548300000000     0.002500000000     0          
C424     C      0.187700000000     0.683200000000     0.015000000000     0          
C425     C      0.237200000000     0.735100000000     0.017600000000     0          
C426     C      0.281700000000     0.712900000000     0.935900000000     0          
O427     O      0.301200000000     0.691000000000     0.932000000000     0          
H428     H      0.988610000000     0.619210000000     0.804040000000     0          
H429     H      0.985800000000     0.697670000000     0.885510000000     0          
H430     H      0.989720000000     0.572150000000     0.849320000000     0          
H431     H      0.987250000000     0.650540000000     0.930870000000     0          
H432     H      0.693530000000     0.692700000000     0.457820000000     0          
H433     H      0.734180000000     0.726920000000     0.577150000000     0          
H434     H      0.687910000000     0.681290000000     0.570270000000     0          
N435     N      0.227700000000     0.225700000000     0.488500000000     0          
C436     C      0.224300000000     0.226000000000     0.409600000000     0          
C437     C      0.202700000000     0.200400000000     0.484700000000     0          
O438     O      0.210300000000     0.213100000000     0.386100000000     0          
C439     C      0.224700000000     0.219500000000     0.550300000000     0          
C440     C      0.199600000000     0.194100000000     0.546500000000     0          
C441     C      0.160700000000     0.157500000000     0.513000000000     0          
C442     C      0.126300000000     0.167400000000     0.511800000000     0          
C443     C      0.169400000000     0.122600000000     0.513300000000     0          
C444     C      0.100400000000     0.142500000000     0.511100000000     0          
C445     C      0.143500000000     0.097700000000     0.512500000000     0          
C446     C      0.109100000000     0.107700000000     0.511400000000     0          
C447     C      0.080700000000     0.080900000000     0.505000000000     0          
O448     O      0.047600000000     0.093500000000     0.503600000000     0          
O449     O      0.093700000000     0.048300000000     0.502500000000     0          
C450     C      0.187700000000     0.183200000000     0.515000000000     0          
C451     C      0.237200000000     0.235100000000     0.517600000000     0          
Cl452    Cl     0.287100000000     0.214200000000     0.462500000000     0          
H453     H      0.988610000000     0.119210000000     0.304040000000     0          
H454     H      0.985800000000     0.197670000000     0.385510000000     0          
H455     H      0.989720000000     0.072150000000     0.349320000000     0          
H456     H      0.987250000000     0.150540000000     0.430870000000     0          
H457     H      0.693530000000     0.192700000000     0.957820000000     0          
H458     H      0.734180000000     0.226920000000     0.077150000000     0          
H459     H      0.687910000000     0.181290000000     0.070270000000     0          
N460     N      0.727700000000     0.725700000000     0.488500000000     0          
C461     C      0.724300000000     0.726000000000     0.409600000000     0          
C462     C      0.702700000000     0.700400000000     0.484700000000     0          
O463     O      0.710300000000     0.713100000000     0.386100000000     0          
C464     C      0.724700000000     0.719500000000     0.550300000000     0          
C465     C      0.699600000000     0.694100000000     0.546500000000     0          
C466     C      0.660700000000     0.657500000000     0.513000000000     0          
C467     C      0.626300000000     0.667400000000     0.511800000000     0          
C468     C      0.669400000000     0.622600000000     0.513300000000     0          
C469     C      0.600400000000     0.642500000000     0.511100000000     0          
C470     C      0.643500000000     0.597700000000     0.512500000000     0          
C471     C      0.609100000000     0.607700000000     0.511400000000     0          
C472     C      0.580700000000     0.580900000000     0.505000000000     0          
O473     O      0.547600000000     0.593500000000     0.503600000000     0          
O474     O      0.593700000000     0.548300000000     0.502500000000     0          
C475     C      0.687700000000     0.683200000000     0.515000000000     0          
C476     C      0.737200000000     0.735100000000     0.517600000000     0          
C477     C      0.781700000000     0.712900000000     0.435900000000     0          
O478     O      0.801200000000     0.691000000000     0.432000000000     0          
H479     H      0.488610000000     0.619210000000     0.304040000000     0          
H480     H      0.485800000000     0.697670000000     0.385510000000     0          
H481     H      0.489720000000     0.572150000000     0.349320000000     0          
H482     H      0.487250000000     0.650540000000     0.430870000000     0          
H483     H      0.193530000000     0.692700000000     0.957820000000     0          
H484     H      0.234180000000     0.726920000000     0.077150000000     0          
H485     H      0.187910000000     0.681290000000     0.070270000000     0          
N486     N      0.727700000000     0.225700000000     0.988500000000     0          
C487     C      0.724300000000     0.226000000000     0.909600000000     0          
C488     C      0.702700000000     0.200400000000     0.984700000000     0          
O489     O      0.710300000000     0.213100000000     0.886100000000     0          
C490     C      0.724700000000     0.219500000000     0.050300000000     0          
C491     C      0.699600000000     0.194100000000     0.046500000000     0          
C492     C      0.660700000000     0.157500000000     0.013000000000     0          
C493     C      0.626300000000     0.167400000000     0.011800000000     0          
C494     C      0.669400000000     0.122600000000     0.013300000000     0          
C495     C      0.600400000000     0.142500000000     0.011100000000     0          
C496     C      0.643500000000     0.097700000000     0.012500000000     0          
C497     C      0.609100000000     0.107700000000     0.011400000000     0          
C498     C      0.580700000000     0.080900000000     0.005000000000     0          
O499     O      0.547600000000     0.093500000000     0.003600000000     0          
O500     O      0.593700000000     0.048300000000     0.002500000000     0          
C501     C      0.687700000000     0.183200000000     0.015000000000     0          
C502     C      0.737200000000     0.235100000000     0.017600000000     0          
Cl503    Cl     0.787100000000     0.214200000000     0.962500000000     0          
H504     H      0.488610000000     0.119210000000     0.804040000000     0          
H505     H      0.485800000000     0.197670000000     0.885510000000     0          
H506     H      0.489720000000     0.072150000000     0.849320000000     0          
H507     H      0.487250000000     0.150540000000     0.930870000000     0          
H508     H      0.193530000000     0.192700000000     0.457820000000     0          
H509     H      0.234180000000     0.226920000000     0.577150000000     0          
H510     H      0.187910000000     0.181290000000     0.570270000000     0          
N511     N      0.227700000000     0.274300000000     0.011500000000     0          
C512     C      0.224300000000     0.274000000000     0.090400000000     0          
C513     C      0.202700000000     0.299600000000     0.015300000000     0          
O514     O      0.210300000000     0.286900000000     0.113900000000     0          
C515     C      0.224700000000     0.280500000000     0.949700000000     0          
C516     C      0.199600000000     0.305900000000     0.953500000000     0          
C517     C      0.160700000000     0.342500000000     0.987000000000     0          
C518     C      0.126300000000     0.332600000000     0.988200000000     0          
C519     C      0.169400000000     0.377400000000     0.986700000000     0          
C520     C      0.100400000000     0.357500000000     0.988900000000     0          
C521     C      0.143500000000     0.402300000000     0.987500000000     0          
C522     C      0.109100000000     0.392300000000     0.988600000000     0          
C523     C      0.080700000000     0.419100000000     0.995000000000     0          
O524     O      0.047600000000     0.406500000000     0.996400000000     0          
O525     O      0.093700000000     0.451700000000     0.997500000000     0          
C526     C      0.187700000000     0.316800000000     0.985000000000     0          
C527     C      0.237200000000     0.264900000000     0.982400000000     0          
C528     C      0.281700000000     0.287100000000     0.064100000000     0          
O529     O      0.301200000000     0.309000000000     0.068000000000     0          
H530     H      0.988610000000     0.380790000000     0.195960000000     0          
H531     H      0.985800000000     0.302330000000     0.114490000000     0          
H532     H      0.989720000000     0.427850000000     0.150680000000     0          
H533     H      0.987250000000     0.349460000000     0.069130000000     0          
H534     H      0.693530000000     0.307300000000     0.542180000000     0          
H535     H      0.734180000000     0.273080000000     0.422850000000     0          
H536     H      0.687910000000     0.318710000000     0.429730000000     0          
N537     N      0.227700000000     0.774300000000     0.511500000000     0          
C538     C      0.224300000000     0.774000000000     0.590400000000     0          
C539     C      0.202700000000     0.799600000000     0.515300000000     0          
O540     O      0.210300000000     0.786900000000     0.613900000000     0          
C541     C      0.224700000000     0.780500000000     0.449700000000     0          
C542     C      0.199600000000     0.805900000000     0.453500000000     0          
C543     C      0.160700000000     0.842500000000     0.487000000000     0          
C544     C      0.126300000000     0.832600000000     0.488200000000     0          
C545     C      0.169400000000     0.877400000000     0.486700000000     0          
C546     C      0.100400000000     0.857500000000     0.488900000000     0          
C547     C      0.143500000000     0.902300000000     0.487500000000     0          
C548     C      0.109100000000     0.892300000000     0.488600000000     0          
C549     C      0.080700000000     0.919100000000     0.495000000000     0          
O550     O      0.047600000000     0.906500000000     0.496400000000     0          
O551     O      0.093700000000     0.951700000000     0.497500000000     0          
C552     C      0.187700000000     0.816800000000     0.485000000000     0          
C553     C      0.237200000000     0.764900000000     0.482400000000     0          
Cl554    Cl     0.287100000000     0.785800000000     0.537500000000     0          
H555     H      0.988610000000     0.880790000000     0.695960000000     0          
H556     H      0.985800000000     0.802330000000     0.614490000000     0          
H557     H      0.989720000000     0.927850000000     0.650680000000     0          
H558     H      0.987250000000     0.849460000000     0.569130000000     0          
H559     H      0.693530000000     0.807300000000     0.042180000000     0          
H560     H      0.734180000000     0.773080000000     0.922850000000     0          
H561     H      0.687910000000     0.818710000000     0.929730000000     0          
N562     N      0.727700000000     0.274300000000     0.511500000000     0          
C563     C      0.724300000000     0.274000000000     0.590400000000     0          
C564     C      0.702700000000     0.299600000000     0.515300000000     0          
O565     O      0.710300000000     0.286900000000     0.613900000000     0          
C566     C      0.724700000000     0.280500000000     0.449700000000     0          
C567     C      0.699600000000     0.305900000000     0.453500000000     0          
C568     C      0.660700000000     0.342500000000     0.487000000000     0          
C569     C      0.626300000000     0.332600000000     0.488200000000     0          
C570     C      0.669400000000     0.377400000000     0.486700000000     0          
C571     C      0.600400000000     0.357500000000     0.488900000000     0          
C572     C      0.643500000000     0.402300000000     0.487500000000     0          
C573     C      0.609100000000     0.392300000000     0.488600000000     0          
C574     C      0.580700000000     0.419100000000     0.495000000000     0          
O575     O      0.547600000000     0.406500000000     0.496400000000     0          
O576     O      0.593700000000     0.451700000000     0.497500000000     0          
C577     C      0.687700000000     0.316800000000     0.485000000000     0          
C578     C      0.737200000000     0.264900000000     0.482400000000     0          
C579     C      0.781700000000     0.287100000000     0.564100000000     0          
O580     O      0.801200000000     0.309000000000     0.568000000000     0          
H581     H      0.488610000000     0.380790000000     0.695960000000     0          
H582     H      0.485800000000     0.302330000000     0.614490000000     0          
H583     H      0.489720000000     0.427850000000     0.650680000000     0          
H584     H      0.487250000000     0.349460000000     0.569130000000     0          
H585     H      0.193530000000     0.307300000000     0.042180000000     0          
H586     H      0.234180000000     0.273080000000     0.922850000000     0          
H587     H      0.187910000000     0.318710000000     0.929730000000     0          
N588     N      0.727700000000     0.774300000000     0.011500000000     0          
C589     C      0.724300000000     0.774000000000     0.090400000000     0          
C590     C      0.702700000000     0.799600000000     0.015300000000     0          
O591     O      0.710300000000     0.786900000000     0.113900000000     0          
C592     C      0.724700000000     0.780500000000     0.949700000000     0          
C593     C      0.699600000000     0.805900000000     0.953500000000     0          
C594     C      0.660700000000     0.842500000000     0.987000000000     0          
C595     C      0.626300000000     0.832600000000     0.988200000000     0          
C596     C      0.669400000000     0.877400000000     0.986700000000     0          
C597     C      0.600400000000     0.857500000000     0.988900000000     0          
C598     C      0.643500000000     0.902300000000     0.987500000000     0          
C599     C      0.609100000000     0.892300000000     0.988600000000     0          
C600     C      0.580700000000     0.919100000000     0.995000000000     0          
O601     O      0.547600000000     0.906500000000     0.996400000000     0          
O602     O      0.593700000000     0.951700000000     0.997500000000     0          
C603     C      0.687700000000     0.816800000000     0.985000000000     0          
C604     C      0.737200000000     0.764900000000     0.982400000000     0          
C605     C      0.781700000000     0.787100000000     0.064100000000     0          
O606     O      0.801200000000     0.809000000000     0.068000000000     0          
H607     H      0.488610000000     0.880790000000     0.195960000000     0          
H608     H      0.485800000000     0.802330000000     0.114490000000     0          
H609     H      0.489720000000     0.927850000000     0.150680000000     0          
H610     H      0.487250000000     0.849460000000     0.069130000000     0          
H611     H      0.193530000000     0.807300000000     0.542180000000     0          
H612     H      0.234180000000     0.773080000000     0.422850000000     0          
H613     H      0.187910000000     0.818710000000     0.429730000000     0          
N614     N      0.772300000000     0.274300000000     0.988500000000     0          
C615     C      0.775700000000     0.274000000000     0.909600000000     0          
C616     C      0.797300000000     0.299600000000     0.984700000000     0          
O617     O      0.789700000000     0.286900000000     0.886100000000     0          
C618     C      0.775300000000     0.280500000000     0.050300000000     0          
C619     C      0.800400000000     0.305900000000     0.046500000000     0          
C620     C      0.839300000000     0.342500000000     0.013000000000     0          
C621     C      0.873700000000     0.332600000000     0.011800000000     0          
C622     C      0.830600000000     0.377400000000     0.013300000000     0          
C623     C      0.899600000000     0.357500000000     0.011100000000     0          
C624     C      0.856500000000     0.402300000000     0.012500000000     0          
C625     C      0.890900000000     0.392300000000     0.011400000000     0          
C626     C      0.919300000000     0.419100000000     0.005000000000     0          
O627     O      0.952400000000     0.406500000000     0.003600000000     0          
O628     O      0.906300000000     0.451700000000     0.002500000000     0          
C629     C      0.812300000000     0.316800000000     0.015000000000     0          
C630     C      0.762800000000     0.264900000000     0.017600000000     0          
C631     C      0.718300000000     0.287100000000     0.935900000000     0          
O632     O      0.698800000000     0.309000000000     0.932000000000     0          
H633     H      0.011390000000     0.380790000000     0.804040000000     0          
H634     H      0.014200000000     0.302330000000     0.885510000000     0          
H635     H      0.010280000000     0.427850000000     0.849320000000     0          
H636     H      0.012750000000     0.349460000000     0.930870000000     0          
H637     H      0.306470000000     0.307300000000     0.457820000000     0          
H638     H      0.265820000000     0.273080000000     0.577150000000     0          
H639     H      0.312090000000     0.318710000000     0.570270000000     0          
N640     N      0.772300000000     0.774300000000     0.488500000000     0          
C641     C      0.775700000000     0.774000000000     0.409600000000     0          
C642     C      0.797300000000     0.799600000000     0.484700000000     0          
O643     O      0.789700000000     0.786900000000     0.386100000000     0          
C644     C      0.775300000000     0.780500000000     0.550300000000     0          
C645     C      0.800400000000     0.805900000000     0.546500000000     0          
C646     C      0.839300000000     0.842500000000     0.513000000000     0          
C647     C      0.873700000000     0.832600000000     0.511800000000     0          
C648     C      0.830600000000     0.877400000000     0.513300000000     0          
C649     C      0.899600000000     0.857500000000     0.511100000000     0          
C650     C      0.856500000000     0.902300000000     0.512500000000     0          
C651     C      0.890900000000     0.892300000000     0.511400000000     0          
C652     C      0.919300000000     0.919100000000     0.505000000000     0          
O653     O      0.952400000000     0.906500000000     0.503600000000     0          
O654     O      0.906300000000     0.951700000000     0.502500000000     0          
C655     C      0.812300000000     0.816800000000     0.515000000000     0          
C656     C      0.762800000000     0.764900000000     0.517600000000     0          
Cl657    Cl     0.712900000000     0.785800000000     0.462500000000     0          
H658     H      0.011390000000     0.880790000000     0.304040000000     0          
H659     H      0.014200000000     0.802330000000     0.385510000000     0          
H660     H      0.010280000000     0.927850000000     0.349320000000     0          
H661     H      0.012750000000     0.849460000000     0.430870000000     0          
H662     H      0.306470000000     0.807300000000     0.957820000000     0          
H663     H      0.265820000000     0.773080000000     0.077150000000     0          
H664     H      0.312090000000     0.818710000000     0.070270000000     0          
N665     N      0.272300000000     0.274300000000     0.488500000000     0          
C666     C      0.275700000000     0.274000000000     0.409600000000     0          
C667     C      0.297300000000     0.299600000000     0.484700000000     0          
O668     O      0.289700000000     0.286900000000     0.386100000000     0          
C669     C      0.275300000000     0.280500000000     0.550300000000     0          
C670     C      0.300400000000     0.305900000000     0.546500000000     0          
C671     C      0.339300000000     0.342500000000     0.513000000000     0          
C672     C      0.373700000000     0.332600000000     0.511800000000     0          
C673     C      0.330600000000     0.377400000000     0.513300000000     0          
C674     C      0.399600000000     0.357500000000     0.511100000000     0          
C675     C      0.356500000000     0.402300000000     0.512500000000     0          
C676     C      0.390900000000     0.392300000000     0.511400000000     0          
C677     C      0.419300000000     0.419100000000     0.505000000000     0          
O678     O      0.452400000000     0.406500000000     0.503600000000     0          
O679     O      0.406300000000     0.451700000000     0.502500000000     0          
C680     C      0.312300000000     0.316800000000     0.515000000000     0          
C681     C      0.262800000000     0.264900000000     0.517600000000     0          
C682     C      0.218300000000     0.287100000000     0.435900000000     0          
O683     O      0.198800000000     0.309000000000     0.432000000000     0          
H684     H      0.511390000000     0.380790000000     0.304040000000     0          
H685     H      0.514200000000     0.302330000000     0.385510000000     0          
H686     H      0.510280000000     0.427850000000     0.349320000000     0          
H687     H      0.512750000000     0.349460000000     0.430870000000     0          
H688     H      0.806470000000     0.307300000000     0.957820000000     0          
H689     H      0.765820000000     0.273080000000     0.077150000000     0          
H690     H      0.812090000000     0.318710000000     0.070270000000     0          
N691     N      0.272300000000     0.774300000000     0.988500000000     0          
C692     C      0.275700000000     0.774000000000     0.909600000000     0          
C693     C      0.297300000000     0.799600000000     0.984700000000     0          
O694     O      0.289700000000     0.786900000000     0.886100000000     0          
C695     C      0.275300000000     0.780500000000     0.050300000000     0          
C696     C      0.300400000000     0.805900000000     0.046500000000     0          
C697     C      0.339300000000     0.842500000000     0.013000000000     0          
C698     C      0.373700000000     0.832600000000     0.011800000000     0          
C699     C      0.330600000000     0.877400000000     0.013300000000     0          
C700     C      0.399600000000     0.857500000000     0.011100000000     0          
C701     C      0.356500000000     0.902300000000     0.012500000000     0          
C702     C      0.390900000000     0.892300000000     0.011400000000     0          
C703     C      0.419300000000     0.919100000000     0.005000000000     0          
O704     O      0.452400000000     0.906500000000     0.003600000000     0          
O705     O      0.406300000000     0.951700000000     0.002500000000     0          
C706     C      0.312300000000     0.816800000000     0.015000000000     0          
C707     C      0.262800000000     0.764900000000     0.017600000000     0          
Cl708    Cl     0.212900000000     0.785800000000     0.962500000000     0          
H709     H      0.511390000000     0.880790000000     0.804040000000     0          
H710     H      0.514200000000     0.802330000000     0.885510000000     0          
H711     H      0.510280000000     0.927850000000     0.849320000000     0          
H712     H      0.512750000000     0.849460000000     0.930870000000     0          
H713     H      0.806470000000     0.807300000000     0.457820000000     0          
H714     H      0.765820000000     0.773080000000     0.577150000000     0          
H715     H      0.812090000000     0.818710000000     0.570270000000     0          
N716     N      0.772300000000     0.725700000000     0.011500000000     0          
C717     C      0.775700000000     0.726000000000     0.090400000000     0          
C718     C      0.797300000000     0.700400000000     0.015300000000     0          
O719     O      0.789700000000     0.713100000000     0.113900000000     0          
C720     C      0.775300000000     0.719500000000     0.949700000000     0          
C721     C      0.800400000000     0.694100000000     0.953500000000     0          
C722     C      0.839300000000     0.657500000000     0.987000000000     0          
C723     C      0.873700000000     0.667400000000     0.988200000000     0          
C724     C      0.830600000000     0.622600000000     0.986700000000     0          
C725     C      0.899600000000     0.642500000000     0.988900000000     0          
C726     C      0.856500000000     0.597700000000     0.987500000000     0          
C727     C      0.890900000000     0.607700000000     0.988600000000     0          
C728     C      0.919300000000     0.580900000000     0.995000000000     0          
O729     O      0.952400000000     0.593500000000     0.996400000000     0          
O730     O      0.906300000000     0.548300000000     0.997500000000     0          
C731     C      0.812300000000     0.683200000000     0.985000000000     0          
C732     C      0.762800000000     0.735100000000     0.982400000000     0          
Cl733    Cl     0.712900000000     0.714200000000     0.037500000000     0          
H734     H      0.011390000000     0.619210000000     0.195960000000     0          
H735     H      0.014200000000     0.697670000000     0.114490000000     0          
H736     H      0.010280000000     0.572150000000     0.150680000000     0          
H737     H      0.012750000000     0.650540000000     0.069130000000     0          
H738     H      0.306470000000     0.692700000000     0.542180000000     0          
H739     H      0.265820000000     0.726920000000     0.422850000000     0          
H740     H      0.312090000000     0.681290000000     0.429730000000     0          
N741     N      0.772300000000     0.225700000000     0.511500000000     0          
C742     C      0.775700000000     0.226000000000     0.590400000000     0          
C743     C      0.797300000000     0.200400000000     0.515300000000     0          
O744     O      0.789700000000     0.213100000000     0.613900000000     0          
C745     C      0.775300000000     0.219500000000     0.449700000000     0          
C746     C      0.800400000000     0.194100000000     0.453500000000     0          
C747     C      0.839300000000     0.157500000000     0.487000000000     0          
C748     C      0.873700000000     0.167400000000     0.488200000000     0          
C749     C      0.830600000000     0.122600000000     0.486700000000     0          
C750     C      0.899600000000     0.142500000000     0.488900000000     0          
C751     C      0.856500000000     0.097700000000     0.487500000000     0          
C752     C      0.890900000000     0.107700000000     0.488600000000     0          
C753     C      0.919300000000     0.080900000000     0.495000000000     0          
O754     O      0.952400000000     0.093500000000     0.496400000000     0          
O755     O      0.906300000000     0.048300000000     0.497500000000     0          
C756     C      0.812300000000     0.183200000000     0.485000000000     0          
C757     C      0.762800000000     0.235100000000     0.482400000000     0          
Cl758    Cl     0.712900000000     0.214200000000     0.537500000000     0          
H759     H      0.011390000000     0.119210000000     0.695960000000     0          
H760     H      0.014200000000     0.197670000000     0.614490000000     0          
H761     H      0.010280000000     0.072150000000     0.650680000000     0          
H762     H      0.012750000000     0.150540000000     0.569130000000     0          
H763     H      0.306470000000     0.192700000000     0.042180000000     0          
H764     H      0.265820000000     0.226920000000     0.922850000000     0          
H765     H      0.312090000000     0.181290000000     0.929730000000     0          
N766     N      0.272300000000     0.725700000000     0.511500000000     0          
C767     C      0.275700000000     0.726000000000     0.590400000000     0          
C768     C      0.297300000000     0.700400000000     0.515300000000     0          
O769     O      0.289700000000     0.713100000000     0.613900000000     0          
C770     C      0.275300000000     0.719500000000     0.449700000000     0          
C771     C      0.300400000000     0.694100000000     0.453500000000     0          
C772     C      0.339300000000     0.657500000000     0.487000000000     0          
C773     C      0.373700000000     0.667400000000     0.488200000000     0          
C774     C      0.330600000000     0.622600000000     0.486700000000     0          
C775     C      0.399600000000     0.642500000000     0.488900000000     0          
C776     C      0.356500000000     0.597700000000     0.487500000000     0          
C777     C      0.390900000000     0.607700000000     0.488600000000     0          
C778     C      0.419300000000     0.580900000000     0.495000000000     0          
O779     O      0.452400000000     0.593500000000     0.496400000000     0          
O780     O      0.406300000000     0.548300000000     0.497500000000     0          
C781     C      0.312300000000     0.683200000000     0.485000000000     0          
C782     C      0.262800000000     0.735100000000     0.482400000000     0          
C783     C      0.218300000000     0.712900000000     0.564100000000     0          
O784     O      0.198800000000     0.691000000000     0.568000000000     0          
H785     H      0.511390000000     0.619210000000     0.695960000000     0          
H786     H      0.514200000000     0.697670000000     0.614490000000     0          
H787     H      0.510280000000     0.572150000000     0.650680000000     0          
H788     H      0.512750000000     0.650540000000     0.569130000000     0          
H789     H      0.806470000000     0.692700000000     0.042180000000     0          
H790     H      0.765820000000     0.726920000000     0.922850000000     0          
H791     H      0.812090000000     0.681290000000     0.929730000000     0          
N792     N      0.272300000000     0.225700000000     0.011500000000     0          
C793     C      0.275700000000     0.226000000000     0.090400000000     0          
C794     C      0.297300000000     0.200400000000     0.015300000000     0          
O795     O      0.289700000000     0.213100000000     0.113900000000     0          
C796     C      0.275300000000     0.219500000000     0.949700000000     0          
C797     C      0.300400000000     0.194100000000     0.953500000000     0          
C798     C      0.339300000000     0.157500000000     0.987000000000     0          
C799     C      0.373700000000     0.167400000000     0.988200000000     0          
C800     C      0.330600000000     0.122600000000     0.986700000000     0          
C801     C      0.399600000000     0.142500000000     0.988900000000     0          
C802     C      0.356500000000     0.097700000000     0.987500000000     0          
C803     C      0.390900000000     0.107700000000     0.988600000000     0          
C804     C      0.419300000000     0.080900000000     0.995000000000     0          
O805     O      0.452400000000     0.093500000000     0.996400000000     0          
O806     O      0.406300000000     0.048300000000     0.997500000000     0          
C807     C      0.312300000000     0.183200000000     0.985000000000     0          
C808     C      0.262800000000     0.235100000000     0.982400000000     0          
Cl809    Cl     0.212900000000     0.214200000000     0.037500000000     0          
H810     H      0.511390000000     0.119210000000     0.195960000000     0          
H811     H      0.514200000000     0.197670000000     0.114490000000     0          
H812     H      0.510280000000     0.072150000000     0.150680000000     0          
H813     H      0.512750000000     0.150540000000     0.069130000000     0          
H814     H      0.806470000000     0.192700000000     0.542180000000     0          
H815     H      0.765820000000     0.226920000000     0.422850000000     0          
H816     H      0.812090000000     0.181290000000     0.429730000000     0          
N817     N      0.988500000000     0.227700000000     0.725700000000     0          
C818     C      0.909600000000     0.224300000000     0.726000000000     0          
C819     C      0.984700000000     0.202700000000     0.700400000000     0          
O820     O      0.886100000000     0.210300000000     0.713100000000     0          
C821     C      0.050300000000     0.224700000000     0.719500000000     0          
C822     C      0.046500000000     0.199600000000     0.694100000000     0          
C823     C      0.013000000000     0.160700000000     0.657500000000     0          
C824     C      0.011800000000     0.126300000000     0.667400000000     0          
C825     C      0.013300000000     0.169400000000     0.622600000000     0          
C826     C      0.011100000000     0.100400000000     0.642500000000     0          
C827     C      0.012500000000     0.143500000000     0.597700000000     0          
C828     C      0.011400000000     0.109100000000     0.607700000000     0          
C829     C      0.005000000000     0.080700000000     0.580900000000     0          
O830     O      0.003600000000     0.047600000000     0.593500000000     0          
O831     O      0.002500000000     0.093700000000     0.548300000000     0          
C832     C      0.015000000000     0.187700000000     0.683200000000     0          
C833     C      0.017600000000     0.237200000000     0.735100000000     0          
Cl834    Cl     0.962500000000     0.287100000000     0.714200000000     0          
H835     H      0.804040000000     0.988610000000     0.619210000000     0          
H836     H      0.885510000000     0.985800000000     0.697670000000     0          
H837     H      0.849320000000     0.989720000000     0.572150000000     0          
H838     H      0.930870000000     0.987250000000     0.650540000000     0          
H839     H      0.457820000000     0.693530000000     0.692700000000     0          
H840     H      0.577150000000     0.734180000000     0.726920000000     0          
H841     H      0.570270000000     0.687910000000     0.681290000000     0          
N842     N      0.988500000000     0.727700000000     0.225700000000     0          
C843     C      0.909600000000     0.724300000000     0.226000000000     0          
C844     C      0.984700000000     0.702700000000     0.200400000000     0          
O845     O      0.886100000000     0.710300000000     0.213100000000     0          
C846     C      0.050300000000     0.724700000000     0.219500000000     0          
C847     C      0.046500000000     0.699600000000     0.194100000000     0          
C848     C      0.013000000000     0.660700000000     0.157500000000     0          
C849     C      0.011800000000     0.626300000000     0.167400000000     0          
C850     C      0.013300000000     0.669400000000     0.122600000000     0          
C851     C      0.011100000000     0.600400000000     0.142500000000     0          
C852     C      0.012500000000     0.643500000000     0.097700000000     0          
C853     C      0.011400000000     0.609100000000     0.107700000000     0          
C854     C      0.005000000000     0.580700000000     0.080900000000     0          
O855     O      0.003600000000     0.547600000000     0.093500000000     0          
O856     O      0.002500000000     0.593700000000     0.048300000000     0          
C857     C      0.015000000000     0.687700000000     0.183200000000     0          
C858     C      0.017600000000     0.737200000000     0.235100000000     0          
C859     C      0.935900000000     0.781700000000     0.212900000000     0          
O860     O      0.932000000000     0.801200000000     0.191000000000     0          
H861     H      0.804040000000     0.488610000000     0.119210000000     0          
H862     H      0.885510000000     0.485800000000     0.197670000000     0          
H863     H      0.849320000000     0.489720000000     0.072150000000     0          
H864     H      0.930870000000     0.487250000000     0.150540000000     0          
H865     H      0.457820000000     0.193530000000     0.192700000000     0          
H866     H      0.577150000000     0.234180000000     0.226920000000     0          
H867     H      0.570270000000     0.187910000000     0.181290000000     0          
N868     N      0.488500000000     0.227700000000     0.225700000000     0          
C869     C      0.409600000000     0.224300000000     0.226000000000     0          
C870     C      0.484700000000     0.202700000000     0.200400000000     0          
O871     O      0.386100000000     0.210300000000     0.213100000000     0          
C872     C      0.550300000000     0.224700000000     0.219500000000     0          
C873     C      0.546500000000     0.199600000000     0.194100000000     0          
C874     C      0.513000000000     0.160700000000     0.157500000000     0          
C875     C      0.511800000000     0.126300000000     0.167400000000     0          
C876     C      0.513300000000     0.169400000000     0.122600000000     0          
C877     C      0.511100000000     0.100400000000     0.142500000000     0          
C878     C      0.512500000000     0.143500000000     0.097700000000     0          
C879     C      0.511400000000     0.109100000000     0.107700000000     0          
C880     C      0.505000000000     0.080700000000     0.080900000000     0          
O881     O      0.503600000000     0.047600000000     0.093500000000     0          
O882     O      0.502500000000     0.093700000000     0.048300000000     0          
C883     C      0.515000000000     0.187700000000     0.183200000000     0          
C884     C      0.517600000000     0.237200000000     0.235100000000     0          
C885     C      0.435900000000     0.281700000000     0.212900000000     0          
O886     O      0.432000000000     0.301200000000     0.191000000000     0          
H887     H      0.304040000000     0.988610000000     0.119210000000     0          
H888     H      0.385510000000     0.985800000000     0.197670000000     0          
H889     H      0.349320000000     0.989720000000     0.072150000000     0          
H890     H      0.430870000000     0.987250000000     0.150540000000     0          
H891     H      0.957820000000     0.693530000000     0.192700000000     0          
H892     H      0.077150000000     0.734180000000     0.226920000000     0          
H893     H      0.070270000000     0.687910000000     0.181290000000     0          
N894     N      0.488500000000     0.727700000000     0.725700000000     0          
C895     C      0.409600000000     0.724300000000     0.726000000000     0          
C896     C      0.484700000000     0.702700000000     0.700400000000     0          
O897     O      0.386100000000     0.710300000000     0.713100000000     0          
C898     C      0.550300000000     0.724700000000     0.719500000000     0          
C899     C      0.546500000000     0.699600000000     0.694100000000     0          
C900     C      0.513000000000     0.660700000000     0.657500000000     0          
C901     C      0.511800000000     0.626300000000     0.667400000000     0          
C902     C      0.513300000000     0.669400000000     0.622600000000     0          
C903     C      0.511100000000     0.600400000000     0.642500000000     0          
C904     C      0.512500000000     0.643500000000     0.597700000000     0          
C905     C      0.511400000000     0.609100000000     0.607700000000     0          
C906     C      0.505000000000     0.580700000000     0.580900000000     0          
O907     O      0.503600000000     0.547600000000     0.593500000000     0          
O908     O      0.502500000000     0.593700000000     0.548300000000     0          
C909     C      0.515000000000     0.687700000000     0.683200000000     0          
C910     C      0.517600000000     0.737200000000     0.735100000000     0          
C911     C      0.435900000000     0.781700000000     0.712900000000     0          
O912     O      0.432000000000     0.801200000000     0.691000000000     0          
H913     H      0.304040000000     0.488610000000     0.619210000000     0          
H914     H      0.385510000000     0.485800000000     0.697670000000     0          
H915     H      0.349320000000     0.489720000000     0.572150000000     0          
H916     H      0.430870000000     0.487250000000     0.650540000000     0          
H917     H      0.957820000000     0.193530000000     0.692700000000     0          
H918     H      0.077150000000     0.234180000000     0.726920000000     0          
H919     H      0.070270000000     0.187910000000     0.681290000000     0          
N920     N      0.011500000000     0.227700000000     0.274300000000     0          
C921     C      0.090400000000     0.224300000000     0.274000000000     0          
C922     C      0.015300000000     0.202700000000     0.299600000000     0          
O923     O      0.113900000000     0.210300000000     0.286900000000     0          
C924     C      0.949700000000     0.224700000000     0.280500000000     0          
C925     C      0.953500000000     0.199600000000     0.305900000000     0          
C926     C      0.987000000000     0.160700000000     0.342500000000     0          
C927     C      0.988200000000     0.126300000000     0.332600000000     0          
C928     C      0.986700000000     0.169400000000     0.377400000000     0          
C929     C      0.988900000000     0.100400000000     0.357500000000     0          
C930     C      0.987500000000     0.143500000000     0.402300000000     0          
C931     C      0.988600000000     0.109100000000     0.392300000000     0          
C932     C      0.995000000000     0.080700000000     0.419100000000     0          
O933     O      0.996400000000     0.047600000000     0.406500000000     0          
O934     O      0.997500000000     0.093700000000     0.451700000000     0          
C935     C      0.985000000000     0.187700000000     0.316800000000     0          
C936     C      0.982400000000     0.237200000000     0.264900000000     0          
C937     C      0.064100000000     0.281700000000     0.287100000000     0          
O938     O      0.068000000000     0.301200000000     0.309000000000     0          
H939     H      0.195960000000     0.988610000000     0.380790000000     0          
H940     H      0.114490000000     0.985800000000     0.302330000000     0          
H941     H      0.150680000000     0.989720000000     0.427850000000     0          
H942     H      0.069130000000     0.987250000000     0.349460000000     0          
H943     H      0.542180000000     0.693530000000     0.307300000000     0          
H944     H      0.422850000000     0.734180000000     0.273080000000     0          
H945     H      0.429730000000     0.687910000000     0.318710000000     0          
N946     N      0.011500000000     0.727700000000     0.774300000000     0          
C947     C      0.090400000000     0.724300000000     0.774000000000     0          
C948     C      0.015300000000     0.702700000000     0.799600000000     0          
O949     O      0.113900000000     0.710300000000     0.786900000000     0          
C950     C      0.949700000000     0.724700000000     0.780500000000     0          
C951     C      0.953500000000     0.699600000000     0.805900000000     0          
C952     C      0.987000000000     0.660700000000     0.842500000000     0          
C953     C      0.988200000000     0.626300000000     0.832600000000     0          
C954     C      0.986700000000     0.669400000000     0.877400000000     0          
C955     C      0.988900000000     0.600400000000     0.857500000000     0          
C956     C      0.987500000000     0.643500000000     0.902300000000     0          
C957     C      0.988600000000     0.609100000000     0.892300000000     0          
C958     C      0.995000000000     0.580700000000     0.919100000000     0          
O959     O      0.996400000000     0.547600000000     0.906500000000     0          
O960     O      0.997500000000     0.593700000000     0.951700000000     0          
C961     C      0.985000000000     0.687700000000     0.816800000000     0          
C962     C      0.982400000000     0.737200000000     0.764900000000     0          
C963     C      0.064100000000     0.781700000000     0.787100000000     0          
O964     O      0.068000000000     0.801200000000     0.809000000000     0          
H965     H      0.195960000000     0.488610000000     0.880790000000     0          
H966     H      0.114490000000     0.485800000000     0.802330000000     0          
H967     H      0.150680000000     0.489720000000     0.927850000000     0          
H968     H      0.069130000000     0.487250000000     0.849460000000     0          
H969     H      0.542180000000     0.193530000000     0.807300000000     0          
H970     H      0.422850000000     0.234180000000     0.773080000000     0          
H971     H      0.429730000000     0.187910000000     0.818710000000     0          
N972     N      0.511500000000     0.227700000000     0.774300000000     0          
C973     C      0.590400000000     0.224300000000     0.774000000000     0          
C974     C      0.515300000000     0.202700000000     0.799600000000     0          
O975     O      0.613900000000     0.210300000000     0.786900000000     0          
C976     C      0.449700000000     0.224700000000     0.780500000000     0          
C977     C      0.453500000000     0.199600000000     0.805900000000     0          
C978     C      0.487000000000     0.160700000000     0.842500000000     0          
C979     C      0.488200000000     0.126300000000     0.832600000000     0          
C980     C      0.486700000000     0.169400000000     0.877400000000     0          
C981     C      0.488900000000     0.100400000000     0.857500000000     0          
C982     C      0.487500000000     0.143500000000     0.902300000000     0          
C983     C      0.488600000000     0.109100000000     0.892300000000     0          
C984     C      0.495000000000     0.080700000000     0.919100000000     0          
O985     O      0.496400000000     0.047600000000     0.906500000000     0          
O986     O      0.497500000000     0.093700000000     0.951700000000     0          
C987     C      0.485000000000     0.187700000000     0.816800000000     0          
C988     C      0.482400000000     0.237200000000     0.764900000000     0          
C989     C      0.564100000000     0.281700000000     0.787100000000     0          
O990     O      0.568000000000     0.301200000000     0.809000000000     0          
H991     H      0.695960000000     0.988610000000     0.880790000000     0          
H992     H      0.614490000000     0.985800000000     0.802330000000     0          
H993     H      0.650680000000     0.989720000000     0.927850000000     0          
H994     H      0.569130000000     0.987250000000     0.849460000000     0          
H995     H      0.042180000000     0.693530000000     0.807300000000     0          
H996     H      0.922850000000     0.734180000000     0.773080000000     0          
H997     H      0.929730000000     0.687910000000     0.818710000000     0          
N998     N      0.511500000000     0.727700000000     0.274300000000     0          
C999     C      0.590400000000     0.724300000000     0.274000000000     0          
C1000    C      0.515300000000     0.702700000000     0.299600000000     0          
O1001    O      0.613900000000     0.710300000000     0.286900000000     0          
C1002    C      0.449700000000     0.724700000000     0.280500000000     0          
C1003    C      0.453500000000     0.699600000000     0.305900000000     0          
C1004    C      0.487000000000     0.660700000000     0.342500000000     0          
C1005    C      0.488200000000     0.626300000000     0.332600000000     0          
C1006    C      0.486700000000     0.669400000000     0.377400000000     0          
C1007    C      0.488900000000     0.600400000000     0.357500000000     0          
C1008    C      0.487500000000     0.643500000000     0.402300000000     0          
C1009    C      0.488600000000     0.609100000000     0.392300000000     0          
C1010    C      0.495000000000     0.580700000000     0.419100000000     0          
O1011    O      0.496400000000     0.547600000000     0.406500000000     0          
O1012    O      0.497500000000     0.593700000000     0.451700000000     0          
C1013    C      0.485000000000     0.687700000000     0.316800000000     0          
C1014    C      0.482400000000     0.737200000000     0.264900000000     0          
C1015    C      0.564100000000     0.781700000000     0.287100000000     0          
O1016    O      0.568000000000     0.801200000000     0.309000000000     0          
H1017    H      0.695960000000     0.488610000000     0.380790000000     0          
H1018    H      0.614490000000     0.485800000000     0.302330000000     0          
H1019    H      0.650680000000     0.489720000000     0.427850000000     0          
H1020    H      0.569130000000     0.487250000000     0.349460000000     0          
H1021    H      0.042180000000     0.193530000000     0.307300000000     0          
H1022    H      0.922850000000     0.234180000000     0.273080000000     0          
H1023    H      0.929730000000     0.187910000000     0.318710000000     0          
N1024    N      0.988500000000     0.772300000000     0.274300000000     0          
C1025    C      0.909600000000     0.775700000000     0.274000000000     0          
C1026    C      0.984700000000     0.797300000000     0.299600000000     0          
O1027    O      0.886100000000     0.789700000000     0.286900000000     0          
C1028    C      0.050300000000     0.775300000000     0.280500000000     0          
C1029    C      0.046500000000     0.800400000000     0.305900000000     0          
C1030    C      0.013000000000     0.839300000000     0.342500000000     0          
C1031    C      0.011800000000     0.873700000000     0.332600000000     0          
C1032    C      0.013300000000     0.830600000000     0.377400000000     0          
C1033    C      0.011100000000     0.899600000000     0.357500000000     0          
C1034    C      0.012500000000     0.856500000000     0.402300000000     0          
C1035    C      0.011400000000     0.890900000000     0.392300000000     0          
C1036    C      0.005000000000     0.919300000000     0.419100000000     0          
O1037    O      0.003600000000     0.952400000000     0.406500000000     0          
O1038    O      0.002500000000     0.906300000000     0.451700000000     0          
C1039    C      0.015000000000     0.812300000000     0.316800000000     0          
C1040    C      0.017600000000     0.762800000000     0.264900000000     0          
Cl1041   Cl     0.962500000000     0.712900000000     0.285800000000     0          
H1042    H      0.804040000000     0.011390000000     0.380790000000     0          
H1043    H      0.885510000000     0.014200000000     0.302330000000     0          
H1044    H      0.849320000000     0.010280000000     0.427850000000     0          
H1045    H      0.930870000000     0.012750000000     0.349460000000     0          
H1046    H      0.457820000000     0.306470000000     0.307300000000     0          
H1047    H      0.577150000000     0.265820000000     0.273080000000     0          
H1048    H      0.570270000000     0.312090000000     0.318710000000     0          
N1049    N      0.988500000000     0.272300000000     0.774300000000     0          
C1050    C      0.909600000000     0.275700000000     0.774000000000     0          
C1051    C      0.984700000000     0.297300000000     0.799600000000     0          
O1052    O      0.886100000000     0.289700000000     0.786900000000     0          
C1053    C      0.050300000000     0.275300000000     0.780500000000     0          
C1054    C      0.046500000000     0.300400000000     0.805900000000     0          
C1055    C      0.013000000000     0.339300000000     0.842500000000     0          
C1056    C      0.011800000000     0.373700000000     0.832600000000     0          
C1057    C      0.013300000000     0.330600000000     0.877400000000     0          
C1058    C      0.011100000000     0.399600000000     0.857500000000     0          
C1059    C      0.012500000000     0.356500000000     0.902300000000     0          
C1060    C      0.011400000000     0.390900000000     0.892300000000     0          
C1061    C      0.005000000000     0.419300000000     0.919100000000     0          
O1062    O      0.003600000000     0.452400000000     0.906500000000     0          
O1063    O      0.002500000000     0.406300000000     0.951700000000     0          
C1064    C      0.015000000000     0.312300000000     0.816800000000     0          
C1065    C      0.017600000000     0.262800000000     0.764900000000     0          
C1066    C      0.935900000000     0.218300000000     0.787100000000     0          
O1067    O      0.932000000000     0.198800000000     0.809000000000     0          
H1068    H      0.804040000000     0.511390000000     0.880790000000     0          
H1069    H      0.885510000000     0.514200000000     0.802330000000     0          
H1070    H      0.849320000000     0.510280000000     0.927850000000     0          
H1071    H      0.930870000000     0.512750000000     0.849460000000     0          
H1072    H      0.457820000000     0.806470000000     0.807300000000     0          
H1073    H      0.577150000000     0.765820000000     0.773080000000     0          
H1074    H      0.570270000000     0.812090000000     0.818710000000     0          
N1075    N      0.488500000000     0.772300000000     0.774300000000     0          
C1076    C      0.409600000000     0.775700000000     0.774000000000     0          
C1077    C      0.484700000000     0.797300000000     0.799600000000     0          
O1078    O      0.386100000000     0.789700000000     0.786900000000     0          
C1079    C      0.550300000000     0.775300000000     0.780500000000     0          
C1080    C      0.546500000000     0.800400000000     0.805900000000     0          
C1081    C      0.513000000000     0.839300000000     0.842500000000     0          
C1082    C      0.511800000000     0.873700000000     0.832600000000     0          
C1083    C      0.513300000000     0.830600000000     0.877400000000     0          
C1084    C      0.511100000000     0.899600000000     0.857500000000     0          
C1085    C      0.512500000000     0.856500000000     0.902300000000     0          
C1086    C      0.511400000000     0.890900000000     0.892300000000     0          
C1087    C      0.505000000000     0.919300000000     0.919100000000     0          
O1088    O      0.503600000000     0.952400000000     0.906500000000     0          
O1089    O      0.502500000000     0.906300000000     0.951700000000     0          
C1090    C      0.515000000000     0.812300000000     0.816800000000     0          
C1091    C      0.517600000000     0.762800000000     0.764900000000     0          
Cl1092   Cl     0.462500000000     0.712900000000     0.785800000000     0          
H1093    H      0.304040000000     0.011390000000     0.880790000000     0          
H1094    H      0.385510000000     0.014200000000     0.802330000000     0          
H1095    H      0.349320000000     0.010280000000     0.927850000000     0          
H1096    H      0.430870000000     0.012750000000     0.849460000000     0          
H1097    H      0.957820000000     0.306470000000     0.807300000000     0          
H1098    H      0.077150000000     0.265820000000     0.773080000000     0          
H1099    H      0.070270000000     0.312090000000     0.818710000000     0          
N1100    N      0.488500000000     0.272300000000     0.274300000000     0          
C1101    C      0.409600000000     0.275700000000     0.274000000000     0          
C1102    C      0.484700000000     0.297300000000     0.299600000000     0          
O1103    O      0.386100000000     0.289700000000     0.286900000000     0          
C1104    C      0.550300000000     0.275300000000     0.280500000000     0          
C1105    C      0.546500000000     0.300400000000     0.305900000000     0          
C1106    C      0.513000000000     0.339300000000     0.342500000000     0          
C1107    C      0.511800000000     0.373700000000     0.332600000000     0          
C1108    C      0.513300000000     0.330600000000     0.377400000000     0          
C1109    C      0.511100000000     0.399600000000     0.357500000000     0          
C1110    C      0.512500000000     0.356500000000     0.402300000000     0          
C1111    C      0.511400000000     0.390900000000     0.392300000000     0          
C1112    C      0.505000000000     0.419300000000     0.419100000000     0          
O1113    O      0.503600000000     0.452400000000     0.406500000000     0          
O1114    O      0.502500000000     0.406300000000     0.451700000000     0          
C1115    C      0.515000000000     0.312300000000     0.316800000000     0          
C1116    C      0.517600000000     0.262800000000     0.264900000000     0          
Cl1117   Cl     0.462500000000     0.212900000000     0.285800000000     0          
H1118    H      0.304040000000     0.511390000000     0.380790000000     0          
H1119    H      0.385510000000     0.514200000000     0.302330000000     0          
H1120    H      0.349320000000     0.510280000000     0.427850000000     0          
H1121    H      0.430870000000     0.512750000000     0.349460000000     0          
H1122    H      0.957820000000     0.806470000000     0.307300000000     0          
H1123    H      0.077150000000     0.765820000000     0.273080000000     0          
H1124    H      0.070270000000     0.812090000000     0.318710000000     0          
N1125    N      0.011500000000     0.772300000000     0.725700000000     0          
C1126    C      0.090400000000     0.775700000000     0.726000000000     0          
C1127    C      0.015300000000     0.797300000000     0.700400000000     0          
O1128    O      0.113900000000     0.789700000000     0.713100000000     0          
C1129    C      0.949700000000     0.775300000000     0.719500000000     0          
C1130    C      0.953500000000     0.800400000000     0.694100000000     0          
C1131    C      0.987000000000     0.839300000000     0.657500000000     0          
C1132    C      0.988200000000     0.873700000000     0.667400000000     0          
C1133    C      0.986700000000     0.830600000000     0.622600000000     0          
C1134    C      0.988900000000     0.899600000000     0.642500000000     0          
C1135    C      0.987500000000     0.856500000000     0.597700000000     0          
C1136    C      0.988600000000     0.890900000000     0.607700000000     0          
C1137    C      0.995000000000     0.919300000000     0.580900000000     0          
O1138    O      0.996400000000     0.952400000000     0.593500000000     0          
O1139    O      0.997500000000     0.906300000000     0.548300000000     0          
C1140    C      0.985000000000     0.812300000000     0.683200000000     0          
C1141    C      0.982400000000     0.762800000000     0.735100000000     0          
Cl1142   Cl     0.037500000000     0.712900000000     0.714200000000     0          
H1143    H      0.195960000000     0.011390000000     0.619210000000     0          
H1144    H      0.114490000000     0.014200000000     0.697670000000     0          
H1145    H      0.150680000000     0.010280000000     0.572150000000     0          
H1146    H      0.069130000000     0.012750000000     0.650540000000     0          
H1147    H      0.542180000000     0.306470000000     0.692700000000     0          
H1148    H      0.422850000000     0.265820000000     0.726920000000     0          
H1149    H      0.429730000000     0.312090000000     0.681290000000     0          
N1150    N      0.011500000000     0.272300000000     0.225700000000     0          
C1151    C      0.090400000000     0.275700000000     0.226000000000     0          
C1152    C      0.015300000000     0.297300000000     0.200400000000     0          
O1153    O      0.113900000000     0.289700000000     0.213100000000     0          
C1154    C      0.949700000000     0.275300000000     0.219500000000     0          
C1155    C      0.953500000000     0.300400000000     0.194100000000     0          
C1156    C      0.987000000000     0.339300000000     0.157500000000     0          
C1157    C      0.988200000000     0.373700000000     0.167400000000     0          
C1158    C      0.986700000000     0.330600000000     0.122600000000     0          
C1159    C      0.988900000000     0.399600000000     0.142500000000     0          
C1160    C      0.987500000000     0.356500000000     0.097700000000     0          
C1161    C      0.988600000000     0.390900000000     0.107700000000     0          
C1162    C      0.995000000000     0.419300000000     0.080900000000     0          
O1163    O      0.996400000000     0.452400000000     0.093500000000     0          
O1164    O      0.997500000000     0.406300000000     0.048300000000     0          
C1165    C      0.985000000000     0.312300000000     0.183200000000     0          
C1166    C      0.982400000000     0.262800000000     0.235100000000     0          
Cl1167   Cl     0.037500000000     0.212900000000     0.214200000000     0          
H1168    H      0.195960000000     0.511390000000     0.119210000000     0          
H1169    H      0.114490000000     0.514200000000     0.197670000000     0          
H1170    H      0.150680000000     0.510280000000     0.072150000000     0          
H1171    H      0.069130000000     0.512750000000     0.150540000000     0          
H1172    H      0.542180000000     0.806470000000     0.192700000000     0          
H1173    H      0.422850000000     0.765820000000     0.226920000000     0          
H1174    H      0.429730000000     0.812090000000     0.181290000000     0          
N1175    N      0.511500000000     0.772300000000     0.225700000000     0          
C1176    C      0.590400000000     0.775700000000     0.226000000000     0          
C1177    C      0.515300000000     0.797300000000     0.200400000000     0          
O1178    O      0.613900000000     0.789700000000     0.213100000000     0          
C1179    C      0.449700000000     0.775300000000     0.219500000000     0          
C1180    C      0.453500000000     0.800400000000     0.194100000000     0          
C1181    C      0.487000000000     0.839300000000     0.157500000000     0          
C1182    C      0.488200000000     0.873700000000     0.167400000000     0          
C1183    C      0.486700000000     0.830600000000     0.122600000000     0          
C1184    C      0.488900000000     0.899600000000     0.142500000000     0          
C1185    C      0.487500000000     0.856500000000     0.097700000000     0          
C1186    C      0.488600000000     0.890900000000     0.107700000000     0          
C1187    C      0.495000000000     0.919300000000     0.080900000000     0          
O1188    O      0.496400000000     0.952400000000     0.093500000000     0          
O1189    O      0.497500000000     0.906300000000     0.048300000000     0          
C1190    C      0.485000000000     0.812300000000     0.183200000000     0          
C1191    C      0.482400000000     0.762800000000     0.235100000000     0          
Cl1192   Cl     0.537500000000     0.712900000000     0.214200000000     0          
H1193    H      0.695960000000     0.011390000000     0.119210000000     0          
H1194    H      0.614490000000     0.014200000000     0.197670000000     0          
H1195    H      0.650680000000     0.010280000000     0.072150000000     0          
H1196    H      0.569130000000     0.012750000000     0.150540000000     0          
H1197    H      0.042180000000     0.306470000000     0.192700000000     0          
H1198    H      0.922850000000     0.265820000000     0.226920000000     0          
H1199    H      0.929730000000     0.312090000000     0.181290000000     0          
N1200    N      0.511500000000     0.272300000000     0.725700000000     0          
C1201    C      0.590400000000     0.275700000000     0.726000000000     0          
C1202    C      0.515300000000     0.297300000000     0.700400000000     0          
O1203    O      0.613900000000     0.289700000000     0.713100000000     0          
C1204    C      0.449700000000     0.275300000000     0.719500000000     0          
C1205    C      0.453500000000     0.300400000000     0.694100000000     0          
C1206    C      0.487000000000     0.339300000000     0.657500000000     0          
C1207    C      0.488200000000     0.373700000000     0.667400000000     0          
C1208    C      0.486700000000     0.330600000000     0.622600000000     0          
C1209    C      0.488900000000     0.399600000000     0.642500000000     0          
C1210    C      0.487500000000     0.356500000000     0.597700000000     0          
C1211    C      0.488600000000     0.390900000000     0.607700000000     0          
C1212    C      0.495000000000     0.419300000000     0.580900000000     0          
O1213    O      0.496400000000     0.452400000000     0.593500000000     0          
O1214    O      0.497500000000     0.406300000000     0.548300000000     0          
C1215    C      0.485000000000     0.312300000000     0.683200000000     0          
C1216    C      0.482400000000     0.262800000000     0.735100000000     0          
Cl1217   Cl     0.537500000000     0.212900000000     0.714200000000     0          
H1218    H      0.695960000000     0.511390000000     0.619210000000     0          
H1219    H      0.614490000000     0.514200000000     0.697670000000     0          
H1220    H      0.650680000000     0.510280000000     0.572150000000     0          
H1221    H      0.569130000000     0.512750000000     0.650540000000     0          
H1222    H      0.042180000000     0.806470000000     0.692700000000     0          
H1223    H      0.922850000000     0.765820000000     0.726920000000     0          
H1224    H      0.929730000000     0.812090000000     0.681290000000     0          
Re1225   Re     0.750000000000     0.943800000000     0.250000000000     0          
Re1226   Re     0.750000000000     0.443800000000     0.750000000000     0          
Re1227   Re     0.250000000000     0.056200000000     0.250000000000     0          
Re1228   Re     0.250000000000     0.556200000000     0.750000000000     0          
Re1229   Re     0.250000000000     0.943800000000     0.750000000000     0          
Re1230   Re     0.250000000000     0.443800000000     0.250000000000     0          
Re1231   Re     0.750000000000     0.056200000000     0.750000000000     0          
Re1232   Re     0.750000000000     0.556200000000     0.250000000000     0          
Re1233   Re     0.250000000000     0.750000000000     0.943800000000     0          
Re1234   Re     0.250000000000     0.250000000000     0.443800000000     0          
Re1235   Re     0.250000000000     0.250000000000     0.056200000000     0          
Re1236   Re     0.250000000000     0.750000000000     0.556200000000     0          
Re1237   Re     0.750000000000     0.250000000000     0.943800000000     0          
Re1238   Re     0.750000000000     0.750000000000     0.443800000000     0          
Re1239   Re     0.750000000000     0.750000000000     0.056200000000     0          
Re1240   Re     0.750000000000     0.250000000000     0.556200000000     0          
Re1241   Re     0.943800000000     0.250000000000     0.750000000000     0          
Re1242   Re     0.443800000000     0.250000000000     0.250000000000     0          
Re1243   Re     0.056200000000     0.250000000000     0.250000000000     0          
Re1244   Re     0.556200000000     0.250000000000     0.750000000000     0          
Re1245   Re     0.943800000000     0.750000000000     0.250000000000     0          
Re1246   Re     0.443800000000     0.750000000000     0.750000000000     0          
Re1247   Re     0.056200000000     0.750000000000     0.750000000000     0          
Re1248   Re     0.556200000000     0.750000000000     0.250000000000     0          
Zr1249   Zr     0.564210000000     0.000000000000     0.000000000000     0          
Zr1250   Zr     0.564210000000     0.500000000000     0.500000000000     0          
Zr1251   Zr     0.064210000000     0.000000000000     0.500000000000     0          
Zr1252   Zr     0.064210000000     0.500000000000     0.000000000000     0          
Zr1253   Zr     0.435790000000     0.000000000000     0.000000000000     0          
Zr1254   Zr     0.435790000000     0.500000000000     0.500000000000     0          
Zr1255   Zr     0.935790000000     0.000000000000     0.500000000000     0          
Zr1256   Zr     0.935790000000     0.500000000000     0.000000000000     0          
Zr1257   Zr     0.000000000000     0.564210000000     0.000000000000     0          
Zr1258   Zr     0.000000000000     0.064210000000     0.500000000000     0          
Zr1259   Zr     0.500000000000     0.564210000000     0.500000000000     0          
Zr1260   Zr     0.500000000000     0.064210000000     0.000000000000     0          
Zr1261   Zr     0.000000000000     0.435790000000     0.000000000000     0          
Zr1262   Zr     0.000000000000     0.935790000000     0.500000000000     0          
Zr1263   Zr     0.500000000000     0.435790000000     0.500000000000     0          
Zr1264   Zr     0.500000000000     0.935790000000     0.000000000000     0          
Zr1265   Zr     0.000000000000     0.000000000000     0.564210000000     0          
Zr1266   Zr     0.000000000000     0.500000000000     0.064210000000     0          
Zr1267   Zr     0.500000000000     0.000000000000     0.064210000000     0          
Zr1268   Zr     0.500000000000     0.500000000000     0.564210000000     0          
Zr1269   Zr     0.000000000000     0.000000000000     0.435790000000     0          
Zr1270   Zr     0.000000000000     0.500000000000     0.935790000000     0          
Zr1271   Zr     0.500000000000     0.000000000000     0.935790000000     0          
Zr1272   Zr     0.500000000000     0.500000000000     0.435790000000     0          
O1273    O      0.527600000000     0.027600000000     0.027600000000     0          
O1274    O      0.527600000000     0.527600000000     0.527600000000     0          
O1275    O      0.472400000000     0.972400000000     0.027600000000     0          
O1276    O      0.472400000000     0.472400000000     0.527600000000     0          
O1277    O      0.972400000000     0.972400000000     0.527600000000     0          
O1278    O      0.472400000000     0.027600000000     0.972400000000     0          
O1279    O      0.472400000000     0.527600000000     0.472400000000     0          
O1280    O      0.972400000000     0.527600000000     0.972400000000     0          
O1281    O      0.527600000000     0.972400000000     0.972400000000     0          
O1282    O      0.527600000000     0.472400000000     0.472400000000     0          
O1283    O      0.027600000000     0.527600000000     0.027600000000     0          
O1284    O      0.027600000000     0.472400000000     0.972400000000     0          
O1285    O      0.972400000000     0.472400000000     0.027600000000     0          
O1286    O      0.027600000000     0.027600000000     0.527600000000     0          
O1287    O      0.972400000000     0.027600000000     0.472400000000     0          
O1288    O      0.027600000000     0.972400000000     0.472400000000     0          
O1289    O      0.537900000000     0.962100000000     0.037900000000     0          
O1290    O      0.537900000000     0.462100000000     0.537900000000     0          
O1291    O      0.462100000000     0.037900000000     0.037900000000     0          
O1292    O      0.462100000000     0.537900000000     0.537900000000     0          
O1293    O      0.962100000000     0.037900000000     0.537900000000     0          
O1294    O      0.962100000000     0.537900000000     0.037900000000     0          
O1295    O      0.462100000000     0.962100000000     0.962100000000     0          
O1296    O      0.462100000000     0.462100000000     0.462100000000     0          
O1297    O      0.537900000000     0.037900000000     0.962100000000     0          
O1298    O      0.537900000000     0.537900000000     0.462100000000     0          
O1299    O      0.037900000000     0.537900000000     0.962100000000     0          
O1300    O      0.037900000000     0.462100000000     0.037900000000     0          
O1301    O      0.037900000000     0.962100000000     0.537900000000     0          
O1302    O      0.962100000000     0.462100000000     0.962100000000     0          
O1303    O      0.037900000000     0.037900000000     0.462100000000     0          
O1304    O      0.962100000000     0.962100000000     0.462100000000     0          


