data_EWILON

_audit_creation_method RASPA-1.0
_audit_creation_date 2020-11-2
_audit_author_name 'Rocio Bueno-Perez'

_cell_length_a    20.782
_cell_length_b    20.782
_cell_length_c    20.782
_cell_angle_alpha 90
_cell_angle_beta  90
_cell_angle_gamma 90
_cell_volume      8975.57

_symmetry_cell_setting          triclinic
_symmetry_space_group_name_Hall 'P 1'
_symmetry_space_group_name_H-M  'P 1'
_symmetry_Int_Tables_number     1

_symmetry_equiv_pos_as_xyz 'x,y,z'

loop_
_atom_site_label
_atom_site_type_symbol
_atom_site_fract_x
_atom_site_fract_y
_atom_site_fract_z
_atom_site_charge
Zr1      Zr     0.120480000000     0.000000000000     0.000000000000     0          
Zr2      Zr     0.120480000000     0.500000000000     0.500000000000     0          
Zr3      Zr     0.620480000000     0.000000000000     0.500000000000     0          
Zr4      Zr     0.620480000000     0.500000000000     0.000000000000     0          
Zr5      Zr     0.879520000000     0.000000000000     0.000000000000     0          
Zr6      Zr     0.879520000000     0.500000000000     0.500000000000     0          
Zr7      Zr     0.379520000000     0.000000000000     0.500000000000     0          
Zr8      Zr     0.379520000000     0.500000000000     0.000000000000     0          
Zr9      Zr     0.000000000000     0.120480000000     0.000000000000     0          
Zr10     Zr     0.000000000000     0.620480000000     0.500000000000     0          
Zr11     Zr     0.500000000000     0.120480000000     0.500000000000     0          
Zr12     Zr     0.500000000000     0.620480000000     0.000000000000     0          
Zr13     Zr     0.000000000000     0.879520000000     0.000000000000     0          
Zr14     Zr     0.000000000000     0.379520000000     0.500000000000     0          
Zr15     Zr     0.500000000000     0.879520000000     0.500000000000     0          
Zr16     Zr     0.500000000000     0.379520000000     0.000000000000     0          
Zr17     Zr     0.000000000000     0.000000000000     0.120480000000     0          
Zr18     Zr     0.000000000000     0.500000000000     0.620480000000     0          
Zr19     Zr     0.500000000000     0.000000000000     0.620480000000     0          
Zr20     Zr     0.500000000000     0.500000000000     0.120480000000     0          
Zr21     Zr     0.000000000000     0.000000000000     0.879520000000     0          
Zr22     Zr     0.000000000000     0.500000000000     0.379520000000     0          
Zr23     Zr     0.500000000000     0.000000000000     0.379520000000     0          
Zr24     Zr     0.500000000000     0.500000000000     0.879520000000     0          
O25      O      0.180500000000     0.000000000000     0.084800000000     0          
C26      C      0.267500000000     0.000000000000     0.184400000000     0          
O27      O      0.180500000000     0.500000000000     0.584800000000     0          
C28      C      0.267500000000     0.500000000000     0.684400000000     0          
O29      O      0.680500000000     0.000000000000     0.584800000000     0          
C30      C      0.767500000000     0.000000000000     0.684400000000     0          
O31      O      0.680500000000     0.500000000000     0.084800000000     0          
C32      C      0.767500000000     0.500000000000     0.184400000000     0          
O33      O      0.819500000000     0.000000000000     0.084800000000     0          
C34      C      0.732500000000     0.000000000000     0.184400000000     0          
O35      O      0.819500000000     0.500000000000     0.584800000000     0          
C36      C      0.732500000000     0.500000000000     0.684400000000     0          
O37      O      0.319500000000     0.000000000000     0.584800000000     0          
C38      C      0.232500000000     0.000000000000     0.684400000000     0          
O39      O      0.319500000000     0.500000000000     0.084800000000     0          
C40      C      0.232500000000     0.500000000000     0.184400000000     0          
O41      O      0.819500000000     0.000000000000     0.915200000000     0          
C42      C      0.732500000000     0.000000000000     0.815600000000     0          
O43      O      0.819500000000     0.500000000000     0.415200000000     0          
C44      C      0.732500000000     0.500000000000     0.315600000000     0          
O45      O      0.319500000000     0.000000000000     0.415200000000     0          
C46      C      0.232500000000     0.000000000000     0.315600000000     0          
O47      O      0.319500000000     0.500000000000     0.915200000000     0          
C48      C      0.232500000000     0.500000000000     0.815600000000     0          
O49      O      0.180500000000     0.000000000000     0.915200000000     0          
C50      C      0.267500000000     0.000000000000     0.815600000000     0          
O51      O      0.180500000000     0.500000000000     0.415200000000     0          
C52      C      0.267500000000     0.500000000000     0.315600000000     0          
N53      N      0.284280000000     0.500000000000     0.378290000000     0          
O54      O      0.680500000000     0.000000000000     0.415200000000     0          
C55      C      0.767500000000     0.000000000000     0.315600000000     0          
O56      O      0.680500000000     0.500000000000     0.915200000000     0          
C57      C      0.767500000000     0.500000000000     0.815600000000     0          
O58      O      0.084800000000     0.180500000000     0.000000000000     0          
C59      C      0.184400000000     0.267500000000     0.000000000000     0          
O60      O      0.084800000000     0.680500000000     0.500000000000     0          
C61      C      0.184400000000     0.767500000000     0.500000000000     0          
O62      O      0.584800000000     0.180500000000     0.500000000000     0          
C63      C      0.684400000000     0.267500000000     0.500000000000     0          
O64      O      0.584800000000     0.680500000000     0.000000000000     0          
C65      C      0.684400000000     0.767500000000     0.000000000000     0          
N66      N      0.621710000000     0.784280000000     0.000000000000     0          
O67      O      0.084800000000     0.819500000000     0.000000000000     0          
C68      C      0.184400000000     0.732500000000     0.000000000000     0          
O69      O      0.084800000000     0.319500000000     0.500000000000     0          
C70      C      0.184400000000     0.232500000000     0.500000000000     0          
O71      O      0.584800000000     0.819500000000     0.500000000000     0          
C72      C      0.684400000000     0.732500000000     0.500000000000     0          
O73      O      0.584800000000     0.319500000000     0.000000000000     0          
C74      C      0.684400000000     0.232500000000     0.000000000000     0          
N75      N      0.621710000000     0.215720000000     0.000000000000     0          
O76      O      0.915200000000     0.819500000000     0.000000000000     0          
C77      C      0.815600000000     0.732500000000     0.000000000000     0          
O78      O      0.915200000000     0.319500000000     0.500000000000     0          
C79      C      0.815600000000     0.232500000000     0.500000000000     0          
O80      O      0.415200000000     0.819500000000     0.500000000000     0          
C81      C      0.315600000000     0.732500000000     0.500000000000     0          
N82      N      0.378290000000     0.715720000000     0.500000000000     0          
O83      O      0.415200000000     0.319500000000     0.000000000000     0          
C84      C      0.315600000000     0.232500000000     0.000000000000     0          
O85      O      0.915200000000     0.180500000000     0.000000000000     0          
C86      C      0.815600000000     0.267500000000     0.000000000000     0          
O87      O      0.915200000000     0.680500000000     0.500000000000     0          
C88      C      0.815600000000     0.767500000000     0.500000000000     0          
O89      O      0.415200000000     0.180500000000     0.500000000000     0          
C90      C      0.315600000000     0.267500000000     0.500000000000     0          
N91      N      0.378290000000     0.284280000000     0.500000000000     0          
O92      O      0.415200000000     0.680500000000     0.000000000000     0          
C93      C      0.315600000000     0.767500000000     0.000000000000     0          
O94      O      0.000000000000     0.084800000000     0.180500000000     0          
C95      C      0.000000000000     0.184400000000     0.267500000000     0          
O96      O      0.000000000000     0.584800000000     0.680500000000     0          
C97      C      0.000000000000     0.684400000000     0.767500000000     0          
O98      O      0.500000000000     0.084800000000     0.680500000000     0          
C99      C      0.500000000000     0.184400000000     0.767500000000     0          
O100     O      0.500000000000     0.584800000000     0.180500000000     0          
C101     C      0.500000000000     0.684400000000     0.267500000000     0          
O102     O      0.000000000000     0.084800000000     0.819500000000     0          
C103     C      0.000000000000     0.184400000000     0.732500000000     0          
O104     O      0.000000000000     0.584800000000     0.319500000000     0          
C105     C      0.000000000000     0.684400000000     0.232500000000     0          
N106     N      0.000000000000     0.621710000000     0.215720000000     0          
O107     O      0.500000000000     0.084800000000     0.319500000000     0          
C108     C      0.500000000000     0.184400000000     0.232500000000     0          
N109     N      0.500000000000     0.121710000000     0.215720000000     0          
O110     O      0.500000000000     0.584800000000     0.819500000000     0          
C111     C      0.500000000000     0.684400000000     0.732500000000     0          
N112     N      0.500000000000     0.621710000000     0.715720000000     0          
O113     O      0.000000000000     0.915200000000     0.819500000000     0          
C114     C      0.000000000000     0.815600000000     0.732500000000     0          
O115     O      0.000000000000     0.415200000000     0.319500000000     0          
C116     C      0.000000000000     0.315600000000     0.232500000000     0          
N117     N      0.000000000000     0.378290000000     0.215720000000     0          
O118     O      0.500000000000     0.915200000000     0.319500000000     0          
C119     C      0.500000000000     0.815600000000     0.232500000000     0          
N120     N      0.500000000000     0.878290000000     0.215720000000     0          
O121     O      0.500000000000     0.415200000000     0.819500000000     0          
C122     C      0.500000000000     0.315600000000     0.732500000000     0          
N123     N      0.500000000000     0.378290000000     0.715720000000     0          
O124     O      0.000000000000     0.915200000000     0.180500000000     0          
C125     C      0.000000000000     0.815600000000     0.267500000000     0          
O126     O      0.000000000000     0.415200000000     0.680500000000     0          
C127     C      0.000000000000     0.315600000000     0.767500000000     0          
O128     O      0.500000000000     0.915200000000     0.680500000000     0          
C129     C      0.500000000000     0.815600000000     0.767500000000     0          
O130     O      0.500000000000     0.415200000000     0.180500000000     0          
C131     C      0.500000000000     0.315600000000     0.267500000000     0          
O132     O      0.000000000000     0.180500000000     0.915200000000     0          
C133     C      0.000000000000     0.267500000000     0.815600000000     0          
O134     O      0.000000000000     0.680500000000     0.415200000000     0          
C135     C      0.000000000000     0.767500000000     0.315600000000     0          
O136     O      0.500000000000     0.180500000000     0.415200000000     0          
C137     C      0.500000000000     0.267500000000     0.315600000000     0          
O138     O      0.500000000000     0.680500000000     0.915200000000     0          
C139     C      0.500000000000     0.767500000000     0.815600000000     0          
O140     O      0.000000000000     0.819500000000     0.915200000000     0          
C141     C      0.000000000000     0.732500000000     0.815600000000     0          
O142     O      0.000000000000     0.319500000000     0.415200000000     0          
C143     C      0.000000000000     0.232500000000     0.315600000000     0          
O144     O      0.500000000000     0.819500000000     0.415200000000     0          
C145     C      0.500000000000     0.732500000000     0.315600000000     0          
O146     O      0.500000000000     0.319500000000     0.915200000000     0          
C147     C      0.500000000000     0.232500000000     0.815600000000     0          
O148     O      0.000000000000     0.819500000000     0.084800000000     0          
C149     C      0.000000000000     0.732500000000     0.184400000000     0          
O150     O      0.000000000000     0.319500000000     0.584800000000     0          
C151     C      0.000000000000     0.232500000000     0.684400000000     0          
N152     N      0.000000000000     0.215720000000     0.621710000000     0          
O153     O      0.500000000000     0.819500000000     0.584800000000     0          
C154     C      0.500000000000     0.732500000000     0.684400000000     0          
O155     O      0.500000000000     0.319500000000     0.084800000000     0          
C156     C      0.500000000000     0.232500000000     0.184400000000     0          
O157     O      0.000000000000     0.180500000000     0.084800000000     0          
C158     C      0.000000000000     0.267500000000     0.184400000000     0          
O159     O      0.000000000000     0.680500000000     0.584800000000     0          
C160     C      0.000000000000     0.767500000000     0.684400000000     0          
N161     N      0.000000000000     0.784280000000     0.621710000000     0          
O162     O      0.500000000000     0.180500000000     0.584800000000     0          
C163     C      0.500000000000     0.267500000000     0.684400000000     0          
O164     O      0.500000000000     0.680500000000     0.084800000000     0          
C165     C      0.500000000000     0.767500000000     0.184400000000     0          
O166     O      0.180500000000     0.084800000000     0.000000000000     0          
C167     C      0.267500000000     0.184400000000     0.000000000000     0          
O168     O      0.180500000000     0.584800000000     0.500000000000     0          
C169     C      0.267500000000     0.684400000000     0.500000000000     0          
O170     O      0.680500000000     0.084800000000     0.500000000000     0          
C171     C      0.767500000000     0.184400000000     0.500000000000     0          
O172     O      0.680500000000     0.584800000000     0.000000000000     0          
C173     C      0.767500000000     0.684400000000     0.000000000000     0          
O174     O      0.819500000000     0.084800000000     0.000000000000     0          
C175     C      0.732500000000     0.184400000000     0.000000000000     0          
O176     O      0.819500000000     0.584800000000     0.500000000000     0          
C177     C      0.732500000000     0.684400000000     0.500000000000     0          
N178     N      0.715720000000     0.621710000000     0.500000000000     0          
O179     O      0.319500000000     0.084800000000     0.500000000000     0          
C180     C      0.232500000000     0.184400000000     0.500000000000     0          
O181     O      0.319500000000     0.584800000000     0.000000000000     0          
C182     C      0.232500000000     0.684400000000     0.000000000000     0          
N183     N      0.215720000000     0.621710000000     0.000000000000     0          
O184     O      0.819500000000     0.915200000000     0.000000000000     0          
C185     C      0.732500000000     0.815600000000     0.000000000000     0          
O186     O      0.819500000000     0.415200000000     0.500000000000     0          
C187     C      0.732500000000     0.315600000000     0.500000000000     0          
N188     N      0.715720000000     0.378290000000     0.500000000000     0          
O189     O      0.319500000000     0.915200000000     0.500000000000     0          
C190     C      0.232500000000     0.815600000000     0.500000000000     0          
O191     O      0.319500000000     0.415200000000     0.000000000000     0          
C192     C      0.232500000000     0.315600000000     0.000000000000     0          
N193     N      0.215720000000     0.378290000000     0.000000000000     0          
O194     O      0.180500000000     0.915200000000     0.000000000000     0          
C195     C      0.267500000000     0.815600000000     0.000000000000     0          
O196     O      0.180500000000     0.415200000000     0.500000000000     0          
C197     C      0.267500000000     0.315600000000     0.500000000000     0          
O198     O      0.680500000000     0.915200000000     0.500000000000     0          
C199     C      0.767500000000     0.815600000000     0.500000000000     0          
O200     O      0.680500000000     0.415200000000     0.000000000000     0          
C201     C      0.767500000000     0.315600000000     0.000000000000     0          
O202     O      0.084800000000     0.000000000000     0.819500000000     0          
C203     C      0.184400000000     0.000000000000     0.732500000000     0          
N204     N      0.121710000000     0.000000000000     0.715720000000     0          
O205     O      0.084800000000     0.500000000000     0.319500000000     0          
C206     C      0.184400000000     0.500000000000     0.232500000000     0          
O207     O      0.584800000000     0.000000000000     0.319500000000     0          
C208     C      0.684400000000     0.000000000000     0.232500000000     0          
N209     N      0.621710000000     0.000000000000     0.215720000000     0          
O210     O      0.584800000000     0.500000000000     0.819500000000     0          
C211     C      0.684400000000     0.500000000000     0.732500000000     0          
N212     N      0.621710000000     0.500000000000     0.715720000000     0          
O213     O      0.084800000000     0.000000000000     0.180500000000     0          
C214     C      0.184400000000     0.000000000000     0.267500000000     0          
N215     N      0.121710000000     0.000000000000     0.284280000000     0          
O216     O      0.084800000000     0.500000000000     0.680500000000     0          
C217     C      0.184400000000     0.500000000000     0.767500000000     0          
O218     O      0.584800000000     0.000000000000     0.680500000000     0          
C219     C      0.684400000000     0.000000000000     0.767500000000     0          
N220     N      0.621710000000     0.000000000000     0.784280000000     0          
O221     O      0.584800000000     0.500000000000     0.180500000000     0          
C222     C      0.684400000000     0.500000000000     0.267500000000     0          
O223     O      0.915200000000     0.000000000000     0.180500000000     0          
C224     C      0.815600000000     0.000000000000     0.267500000000     0          
O225     O      0.915200000000     0.500000000000     0.680500000000     0          
C226     C      0.815600000000     0.500000000000     0.767500000000     0          
O227     O      0.415200000000     0.000000000000     0.680500000000     0          
C228     C      0.315600000000     0.000000000000     0.767500000000     0          
O229     O      0.415200000000     0.500000000000     0.180500000000     0          
C230     C      0.315600000000     0.500000000000     0.267500000000     0          
O231     O      0.915200000000     0.000000000000     0.819500000000     0          
C232     C      0.815600000000     0.000000000000     0.732500000000     0          
O233     O      0.915200000000     0.500000000000     0.319500000000     0          
C234     C      0.815600000000     0.500000000000     0.232500000000     0          
N235     N      0.878290000000     0.500000000000     0.215720000000     0          
O236     O      0.415200000000     0.000000000000     0.319500000000     0          
C237     C      0.315600000000     0.000000000000     0.232500000000     0          
O238     O      0.415200000000     0.500000000000     0.819500000000     0          
C239     C      0.315600000000     0.500000000000     0.732500000000     0          
N240     N      0.378290000000     0.500000000000     0.715720000000     0          
O241     O      0.062800000000     0.062800000000     0.062800000000     0          
Re242    Re     0.148000000000     0.148000000000     0.148000000000     0          
O243     O      0.062800000000     0.562800000000     0.562800000000     0          
Re244    Re     0.148000000000     0.648000000000     0.648000000000     0          
O245     O      0.562800000000     0.062800000000     0.562800000000     0          
Re246    Re     0.648000000000     0.148000000000     0.648000000000     0          
O247     O      0.562800000000     0.562800000000     0.062800000000     0          
Re248    Re     0.648000000000     0.648000000000     0.148000000000     0          
O249     O      0.937200000000     0.937200000000     0.062800000000     0          
Re250    Re     0.852000000000     0.852000000000     0.148000000000     0          
O251     O      0.937200000000     0.437200000000     0.562800000000     0          
Re252    Re     0.852000000000     0.352000000000     0.648000000000     0          
O253     O      0.437200000000     0.937200000000     0.562800000000     0          
Re254    Re     0.352000000000     0.852000000000     0.648000000000     0          
O255     O      0.437200000000     0.437200000000     0.062800000000     0          
Re256    Re     0.352000000000     0.352000000000     0.148000000000     0          
O257     O      0.937200000000     0.062800000000     0.937200000000     0          
Re258    Re     0.852000000000     0.148000000000     0.852000000000     0          
O259     O      0.937200000000     0.562800000000     0.437200000000     0          
Re260    Re     0.852000000000     0.648000000000     0.352000000000     0          
O261     O      0.437200000000     0.062800000000     0.437200000000     0          
Re262    Re     0.352000000000     0.148000000000     0.352000000000     0          
O263     O      0.437200000000     0.562800000000     0.937200000000     0          
Re264    Re     0.352000000000     0.648000000000     0.852000000000     0          
O265     O      0.062800000000     0.937200000000     0.937200000000     0          
Re266    Re     0.148000000000     0.852000000000     0.852000000000     0          
O267     O      0.062800000000     0.437200000000     0.437200000000     0          
Re268    Re     0.148000000000     0.352000000000     0.352000000000     0          
O269     O      0.562800000000     0.937200000000     0.437200000000     0          
Re270    Re     0.648000000000     0.852000000000     0.352000000000     0          
O271     O      0.562800000000     0.437200000000     0.937200000000     0          
Re272    Re     0.648000000000     0.352000000000     0.852000000000     0          
O273     O      0.062800000000     0.062800000000     0.937200000000     0          
Re274    Re     0.148000000000     0.148000000000     0.852000000000     0          
O275     O      0.062800000000     0.562800000000     0.437200000000     0          
Re276    Re     0.148000000000     0.648000000000     0.352000000000     0          
O277     O      0.562800000000     0.062800000000     0.437200000000     0          
Re278    Re     0.648000000000     0.148000000000     0.352000000000     0          
O279     O      0.562800000000     0.562800000000     0.937200000000     0          
Re280    Re     0.648000000000     0.648000000000     0.852000000000     0          
O281     O      0.937200000000     0.937200000000     0.937200000000     0          
Re282    Re     0.852000000000     0.852000000000     0.852000000000     0          
O283     O      0.937200000000     0.437200000000     0.437200000000     0          
Re284    Re     0.852000000000     0.352000000000     0.352000000000     0          
O285     O      0.437200000000     0.937200000000     0.437200000000     0          
Re286    Re     0.352000000000     0.852000000000     0.352000000000     0          
O287     O      0.437200000000     0.437200000000     0.937200000000     0          
Re288    Re     0.352000000000     0.352000000000     0.852000000000     0          
O289     O      0.062800000000     0.937200000000     0.062800000000     0          
Re290    Re     0.148000000000     0.852000000000     0.148000000000     0          
O291     O      0.062800000000     0.437200000000     0.562800000000     0          
Re292    Re     0.148000000000     0.352000000000     0.648000000000     0          
O293     O      0.562800000000     0.937200000000     0.562800000000     0          
Re294    Re     0.648000000000     0.852000000000     0.648000000000     0          
O295     O      0.562800000000     0.437200000000     0.062800000000     0          
Re296    Re     0.648000000000     0.352000000000     0.148000000000     0          
O297     O      0.937200000000     0.062800000000     0.062800000000     0          
Re298    Re     0.852000000000     0.148000000000     0.148000000000     0          
O299     O      0.937200000000     0.562800000000     0.562800000000     0          
Re300    Re     0.852000000000     0.648000000000     0.648000000000     0          
O301     O      0.437200000000     0.062800000000     0.562800000000     0          
Re302    Re     0.352000000000     0.148000000000     0.648000000000     0          
O303     O      0.437200000000     0.562800000000     0.062800000000     0          
Re304    Re     0.352000000000     0.648000000000     0.148000000000     0          
C305     C      0.153600000000     0.000000000000     0.153600000000     0          
C306     C      0.205000000000     0.000000000000     0.205000000000     0          
C307     C      0.153600000000     0.500000000000     0.653600000000     0          
C308     C      0.205000000000     0.500000000000     0.705000000000     0          
C309     C      0.653600000000     0.000000000000     0.653600000000     0          
C310     C      0.705000000000     0.000000000000     0.705000000000     0          
C311     C      0.653600000000     0.500000000000     0.153600000000     0          
C312     C      0.705000000000     0.500000000000     0.205000000000     0          
C313     C      0.846400000000     0.000000000000     0.153600000000     0          
C314     C      0.795000000000     0.000000000000     0.205000000000     0          
C315     C      0.846400000000     0.500000000000     0.653600000000     0          
C316     C      0.795000000000     0.500000000000     0.705000000000     0          
C317     C      0.346400000000     0.000000000000     0.653600000000     0          
C318     C      0.295000000000     0.000000000000     0.705000000000     0          
C319     C      0.346400000000     0.500000000000     0.153600000000     0          
C320     C      0.295000000000     0.500000000000     0.205000000000     0          
C321     C      0.846400000000     0.000000000000     0.846400000000     0          
C322     C      0.795000000000     0.000000000000     0.795000000000     0          
C323     C      0.846400000000     0.500000000000     0.346400000000     0          
C324     C      0.795000000000     0.500000000000     0.295000000000     0          
C325     C      0.346400000000     0.000000000000     0.346400000000     0          
C326     C      0.295000000000     0.000000000000     0.295000000000     0          
C327     C      0.346400000000     0.500000000000     0.846400000000     0          
C328     C      0.295000000000     0.500000000000     0.795000000000     0          
C329     C      0.153600000000     0.000000000000     0.846400000000     0          
C330     C      0.205000000000     0.000000000000     0.795000000000     0          
C331     C      0.153600000000     0.500000000000     0.346400000000     0          
C332     C      0.205000000000     0.500000000000     0.295000000000     0          
C333     C      0.653600000000     0.000000000000     0.346400000000     0          
C334     C      0.705000000000     0.000000000000     0.295000000000     0          
C335     C      0.653600000000     0.500000000000     0.846400000000     0          
C336     C      0.705000000000     0.500000000000     0.795000000000     0          
C337     C      0.153600000000     0.153600000000     0.000000000000     0          
C338     C      0.205000000000     0.205000000000     0.000000000000     0          
C339     C      0.153600000000     0.653600000000     0.500000000000     0          
C340     C      0.205000000000     0.705000000000     0.500000000000     0          
C341     C      0.653600000000     0.153600000000     0.500000000000     0          
C342     C      0.705000000000     0.205000000000     0.500000000000     0          
C343     C      0.653600000000     0.653600000000     0.000000000000     0          
C344     C      0.705000000000     0.705000000000     0.000000000000     0          
C345     C      0.153600000000     0.846400000000     0.000000000000     0          
C346     C      0.205000000000     0.795000000000     0.000000000000     0          
C347     C      0.153600000000     0.346400000000     0.500000000000     0          
C348     C      0.205000000000     0.295000000000     0.500000000000     0          
C349     C      0.653600000000     0.846400000000     0.500000000000     0          
C350     C      0.705000000000     0.795000000000     0.500000000000     0          
C351     C      0.653600000000     0.346400000000     0.000000000000     0          
C352     C      0.705000000000     0.295000000000     0.000000000000     0          
C353     C      0.846400000000     0.846400000000     0.000000000000     0          
C354     C      0.795000000000     0.795000000000     0.000000000000     0          
C355     C      0.846400000000     0.346400000000     0.500000000000     0          
C356     C      0.795000000000     0.295000000000     0.500000000000     0          
C357     C      0.346400000000     0.846400000000     0.500000000000     0          
C358     C      0.295000000000     0.795000000000     0.500000000000     0          
C359     C      0.346400000000     0.346400000000     0.000000000000     0          
C360     C      0.295000000000     0.295000000000     0.000000000000     0          
C361     C      0.846400000000     0.153600000000     0.000000000000     0          
C362     C      0.795000000000     0.205000000000     0.000000000000     0          
C363     C      0.846400000000     0.653600000000     0.500000000000     0          
C364     C      0.795000000000     0.705000000000     0.500000000000     0          
C365     C      0.346400000000     0.153600000000     0.500000000000     0          
C366     C      0.295000000000     0.205000000000     0.500000000000     0          
C367     C      0.346400000000     0.653600000000     0.000000000000     0          
C368     C      0.295000000000     0.705000000000     0.000000000000     0          
C369     C      0.000000000000     0.153600000000     0.153600000000     0          
C370     C      0.000000000000     0.205000000000     0.205000000000     0          
C371     C      0.000000000000     0.653600000000     0.653600000000     0          
C372     C      0.000000000000     0.705000000000     0.705000000000     0          
C373     C      0.500000000000     0.153600000000     0.653600000000     0          
C374     C      0.500000000000     0.205000000000     0.705000000000     0          
C375     C      0.500000000000     0.653600000000     0.153600000000     0          
C376     C      0.500000000000     0.705000000000     0.205000000000     0          
C377     C      0.000000000000     0.153600000000     0.846400000000     0          
C378     C      0.000000000000     0.205000000000     0.795000000000     0          
C379     C      0.000000000000     0.653600000000     0.346400000000     0          
C380     C      0.000000000000     0.705000000000     0.295000000000     0          
C381     C      0.500000000000     0.153600000000     0.346400000000     0          
C382     C      0.500000000000     0.205000000000     0.295000000000     0          
C383     C      0.500000000000     0.653600000000     0.846400000000     0          
C384     C      0.500000000000     0.705000000000     0.795000000000     0          
C385     C      0.000000000000     0.846400000000     0.846400000000     0          
C386     C      0.000000000000     0.795000000000     0.795000000000     0          
C387     C      0.000000000000     0.346400000000     0.346400000000     0          
C388     C      0.000000000000     0.295000000000     0.295000000000     0          
C389     C      0.500000000000     0.846400000000     0.346400000000     0          
C390     C      0.500000000000     0.795000000000     0.295000000000     0          
C391     C      0.500000000000     0.346400000000     0.846400000000     0          
C392     C      0.500000000000     0.295000000000     0.795000000000     0          
C393     C      0.000000000000     0.846400000000     0.153600000000     0          
C394     C      0.000000000000     0.795000000000     0.205000000000     0          
C395     C      0.000000000000     0.346400000000     0.653600000000     0          
C396     C      0.000000000000     0.295000000000     0.705000000000     0          
C397     C      0.500000000000     0.846400000000     0.653600000000     0          
C398     C      0.500000000000     0.795000000000     0.705000000000     0          
C399     C      0.500000000000     0.346400000000     0.153600000000     0          
C400     C      0.500000000000     0.295000000000     0.205000000000     0          
H401     H      0.630700000000     0.721320000000     0.500000000000     0          
H402     H      0.869300000000     0.778680000000     0.500000000000     0          
H403     H      0.546260000000     0.595910000000     0.708810000000     0          
H404     H      0.453740000000     0.595910000000     0.708810000000     0          
H405     H      0.500000000000     0.869300000000     0.778680000000     0          
H406     H      0.500000000000     0.778680000000     0.869300000000     0          
H407     H      0.500000000000     0.721320000000     0.630700000000     0          
H408     H      0.752070000000     0.584330000000     0.488420000000     0          
H409     H      0.665550000000     0.607490000000     0.511580000000     0          
H410     H      0.778680000000     0.869300000000     0.500000000000     0          
H411     H      0.967860000000     0.604510000000     0.176680000000     0          
H412     H      0.032140000000     0.587310000000     0.240950000000     0          
H413     H      0.000000000000     0.869300000000     0.278680000000     0          
H414     H      0.000000000000     0.778680000000     0.369300000000     0          
H415     H      0.000000000000     0.721320000000     0.130700000000     0          
H416     H      0.130700000000     0.721320000000     0.000000000000     0          
H417     H      0.369300000000     0.778680000000     0.000000000000     0          
H418     H      0.252070000000     0.584330000000     0.988420000000     0          
H419     H      0.165550000000     0.607490000000     0.011580000000     0          
H420     H      0.278680000000     0.869300000000     0.000000000000     0          
H421     H      0.000000000000     0.630700000000     0.778680000000     0          
H422     H      0.000000000000     0.869300000000     0.721320000000     0          
H423     H      0.000000000000     0.721320000000     0.869300000000     0          
H424     H      0.988420000000     0.747930000000     0.584330000000     0          
H425     H      0.011580000000     0.834450000000     0.607490000000     0          
H426     H      0.587310000000     0.759050000000     0.967860000000     0          
H427     H      0.604510000000     0.823320000000     0.032140000000     0          
H428     H      0.869300000000     0.721320000000     0.000000000000     0          
H429     H      0.778680000000     0.630700000000     0.000000000000     0          
H430     H      0.721320000000     0.869300000000     0.000000000000     0          
H431     H      0.630700000000     0.278680000000     0.500000000000     0          
H432     H      0.869300000000     0.221320000000     0.500000000000     0          
H433     H      0.500000000000     0.130700000000     0.778680000000     0          
H434     H      0.453740000000     0.404090000000     0.708810000000     0          
H435     H      0.546260000000     0.404090000000     0.708810000000     0          
H436     H      0.500000000000     0.221320000000     0.869300000000     0          
H437     H      0.500000000000     0.278680000000     0.630700000000     0          
H438     H      0.778680000000     0.130700000000     0.500000000000     0          
H439     H      0.665550000000     0.392510000000     0.488420000000     0          
H440     H      0.752070000000     0.415670000000     0.511580000000     0          
H441     H      0.000000000000     0.130700000000     0.278680000000     0          
H442     H      0.967860000000     0.395490000000     0.176680000000     0          
H443     H      0.032140000000     0.412690000000     0.240950000000     0          
H444     H      0.000000000000     0.221320000000     0.369300000000     0          
H445     H      0.000000000000     0.278680000000     0.130700000000     0          
H446     H      0.130700000000     0.278680000000     0.000000000000     0          
H447     H      0.369300000000     0.221320000000     0.000000000000     0          
H448     H      0.278680000000     0.130700000000     0.000000000000     0          
H449     H      0.165550000000     0.392510000000     0.988420000000     0          
H450     H      0.252070000000     0.415670000000     0.011580000000     0          
H451     H      0.000000000000     0.130700000000     0.721320000000     0          
H452     H      0.000000000000     0.369300000000     0.778680000000     0          
H453     H      0.000000000000     0.278680000000     0.869300000000     0          
H454     H      0.988420000000     0.252070000000     0.584330000000     0          
H455     H      0.011580000000     0.165550000000     0.607490000000     0          
H456     H      0.604510000000     0.176680000000     0.967860000000     0          
H457     H      0.587310000000     0.240950000000     0.032140000000     0          
H458     H      0.869300000000     0.278680000000     0.000000000000     0          
H459     H      0.721320000000     0.130700000000     0.000000000000     0          
H460     H      0.778680000000     0.369300000000     0.000000000000     0          
H461     H      0.778680000000     0.000000000000     0.630700000000     0          
H462     H      0.721320000000     0.500000000000     0.630700000000     0          
H463     H      0.721320000000     0.000000000000     0.869300000000     0          
H464     H      0.778680000000     0.500000000000     0.869300000000     0          
H465     H      0.604510000000     0.467860000000     0.676680000000     0          
H466     H      0.587310000000     0.532140000000     0.740950000000     0          
H467     H      0.587310000000     0.967860000000     0.759050000000     0          
H468     H      0.604510000000     0.032140000000     0.823320000000     0          
H469     H      0.869300000000     0.500000000000     0.778680000000     0          
H470     H      0.869300000000     0.000000000000     0.721320000000     0          
H471     H      0.278680000000     0.500000000000     0.630700000000     0          
H472     H      0.221320000000     0.000000000000     0.630700000000     0          
H473     H      0.221320000000     0.500000000000     0.869300000000     0          
H474     H      0.278680000000     0.000000000000     0.869300000000     0          
H475     H      0.104510000000     0.967860000000     0.676680000000     0          
H476     H      0.087310000000     0.032140000000     0.740950000000     0          
H477     H      0.130700000000     0.500000000000     0.778680000000     0          
H478     H      0.369300000000     0.000000000000     0.778680000000     0          
H479     H      0.395490000000     0.467860000000     0.676680000000     0          
H480     H      0.412690000000     0.532140000000     0.740950000000     0          
H481     H      0.278680000000     0.000000000000     0.130700000000     0          
H482     H      0.221320000000     0.500000000000     0.130700000000     0          
H483     H      0.221320000000     0.000000000000     0.369300000000     0          
H484     H      0.334450000000     0.488420000000     0.392510000000     0          
H485     H      0.247930000000     0.511580000000     0.415670000000     0          
H486     H      0.130700000000     0.500000000000     0.221320000000     0          
H487     H      0.087310000000     0.967860000000     0.259050000000     0          
H488     H      0.104510000000     0.032140000000     0.323320000000     0          
H489     H      0.369300000000     0.500000000000     0.278680000000     0          
H490     H      0.369300000000     0.000000000000     0.221320000000     0          
H491     H      0.778680000000     0.500000000000     0.130700000000     0          
H492     H      0.721320000000     0.000000000000     0.130700000000     0          
H493     H      0.721320000000     0.500000000000     0.369300000000     0          
H494     H      0.778680000000     0.000000000000     0.369300000000     0          
H495     H      0.604510000000     0.967860000000     0.176680000000     0          
H496     H      0.587310000000     0.032140000000     0.240950000000     0          
H497     H      0.630700000000     0.500000000000     0.278680000000     0          
H498     H      0.869300000000     0.000000000000     0.278680000000     0          
H499     H      0.895490000000     0.467860000000     0.176680000000     0          
H500     H      0.912690000000     0.532140000000     0.240950000000     0          
H501     H      0.846400000000     0.445140000000     0.346400000000     0          
H502     H      0.130700000000     0.221320000000     0.500000000000     0          
H503     H      0.412690000000     0.259050000000     0.467860000000     0          
H504     H      0.395490000000     0.323320000000     0.532140000000     0          
H505     H      0.221320000000     0.130700000000     0.500000000000     0          
H506     H      0.278680000000     0.369300000000     0.500000000000     0          
H507     H      0.130700000000     0.778680000000     0.500000000000     0          
H508     H      0.395490000000     0.676680000000     0.467860000000     0          
H509     H      0.412690000000     0.740950000000     0.532140000000     0          
H510     H      0.278680000000     0.630700000000     0.500000000000     0          
H511     H      0.221320000000     0.869300000000     0.500000000000     0          
H512     H      0.500000000000     0.630700000000     0.278680000000     0          
H513     H      0.453740000000     0.904090000000     0.208810000000     0          
H514     H      0.546260000000     0.904090000000     0.208810000000     0          
H515     H      0.500000000000     0.721320000000     0.369300000000     0          
H516     H      0.500000000000     0.778680000000     0.130700000000     0          
H517     H      0.546260000000     0.095910000000     0.208810000000     0          
H518     H      0.453740000000     0.095910000000     0.208810000000     0          
H519     H      0.500000000000     0.369300000000     0.278680000000     0          
H520     H      0.500000000000     0.278680000000     0.369300000000     0          
H521     H      0.500000000000     0.221320000000     0.130700000000     0          


