data_FEVWUB

_audit_creation_method RASPA-1.0
_audit_creation_date 2020-11-2
_audit_author_name 'Rocio Bueno-Perez'

_cell_length_a    40.362
_cell_length_b    39.8384
_cell_length_c    27.9686
_cell_angle_alpha 90
_cell_angle_beta  90
_cell_angle_gamma 90
_cell_volume      44972.3

_symmetry_cell_setting          orthorhombic
_symmetry_space_group_name_Hall 'P 1'
_symmetry_space_group_name_H-M  'P 1'
_symmetry_Int_Tables_number     1

_symmetry_equiv_pos_as_xyz 'x,y,z'

loop_
_atom_site_label
_atom_site_type_symbol
_atom_site_fract_x
_atom_site_fract_y
_atom_site_fract_z
_atom_site_charge
Zr6      Zr     0.719520000000     0.050420000000     0.187360000000     0          
Zr7      Zr     0.784930000000     0.990590000000     0.186360000000     0          
O1       O      0.530500000000     0.809000000000     0.707900000000     0          
O2       O      0.532200000000     0.745600000000     0.793800000000     0          
O7       O      0.731550000000     0.996760000000     0.178600000000     0          
O10      O      0.770020000000     0.041000000000     0.194500000000     0          
O13      O      0.587010000000     0.778100000000     0.679300000000     0          
O14      O      0.548140000000     0.777000000000     0.623200000000     0          
O16      O      0.720000000000     0.047200000000     0.109100000000     0          
O17      O      0.782100000000     0.991600000000     0.108200000000     0          
O19      O      0.718350000000     0.931020000000     0.298000000000     0          
O20      O      0.765820000000     0.938900000000     0.337300000000     0          
O21      O      0.760220000000     0.598420000000     0.341200000000     0          
O22      O      0.714170000000     0.609610000000     0.299000000000     0          
O25      O      0.669010000000     0.976510000000     0.297000000000     0          
O26      O      0.671740000000     0.027040000000     0.334800000000     0          
O29      O      0.335660000000     0.564820000000     0.201800000000     0          
O30      O      0.330250000000     0.517500000000     0.159600000000     0          
C1       C      0.680200000000     0.772000000000     0.491500000000     0          
C2       C      0.692400000000     0.802500000000     0.472100000000     0          
C3       C      0.713500000000     0.800600000000     0.433100000000     0          
C4       C      0.723900000000     0.770000000000     0.413400000000     0          
C5       C      0.712000000000     0.740000000000     0.433400000000     0          
C6       C      0.691000000000     0.741500000000     0.473300000000     0          
C7       C      0.654400000000     0.773500000000     0.530200000000     0          
C8       C      0.661800000000     0.772500000000     0.578000000000     0          
H1       H      0.684310000000     0.770400000000     0.587490000000     0          
C9       C      0.638000000000     0.774500000000     0.612300000000     0          
H2       H      0.644040000000     0.775100000000     0.645150000000     0          
C10      C      0.604200000000     0.775600000000     0.598700000000     0          
C11      C      0.596400000000     0.775600000000     0.551100000000     0          
H3       H      0.573860000000     0.777000000000     0.541560000000     0          
C12      C      0.620500000000     0.773700000000     0.517100000000     0          
H4       H      0.614560000000     0.772520000000     0.484280000000     0          
C13      C      0.577700000000     0.777900000000     0.636400000000     0          
C14      C      0.680200000000     0.835800000000     0.490500000000     0          
H5       H      0.695230000000     0.853660000000     0.479970000000     0          
H6       H      0.679420000000     0.835340000000     0.525490000000     0          
H7       H      0.657910000000     0.840170000000     0.477920000000     0          
C15      C      0.722200000000     0.832000000000     0.406800000000     0          
C16      C      0.750000000000     0.851200000000     0.415900000000     0          
H8       H      0.764970000000     0.844720000000     0.440360000000     0          
C17      C      0.756000000000     0.880200000000     0.388900000000     0          
H9       H      0.775920000000     0.892280000000     0.394750000000     0          
C18      C      0.735200000000     0.891900000000     0.355100000000     0          
C19      C      0.706400000000     0.873000000000     0.345000000000     0          
H10      H      0.691030000000     0.880110000000     0.321270000000     0          
C20      C      0.701000000000     0.842800000000     0.371300000000     0          
H11      H      0.682040000000     0.829650000000     0.364080000000     0          
C21      C      0.740600000000     0.923600000000     0.327400000000     0          
C22      C      0.747100000000     0.768800000000     0.371700000000     0          
H12      H      0.735430000000     0.759960000000     0.343660000000     0          
H13      H      0.765910000000     0.754230000000     0.379330000000     0          
H14      H      0.755170000000     0.791510000000     0.364710000000     0          
C23      C      0.719200000000     0.706500000000     0.409800000000     0          
C24      C      0.699200000000     0.698600000000     0.371700000000     0          
H15      H      0.681630000000     0.713290000000     0.362940000000     0          
C25      C      0.704500000000     0.669100000000     0.345700000000     0          
H16      H      0.690820000000     0.664040000000     0.319000000000     0          
C26      C      0.729300000000     0.647400000000     0.358600000000     0          
C27      C      0.750000000000     0.657300000000     0.396800000000     0          
H17      H      0.768150000000     0.643460000000     0.405550000000     0          
C28      C      0.744200000000     0.686800000000     0.421800000000     0          
H18      H      0.758330000000     0.692860000000     0.447610000000     0          
C29      C      0.734800000000     0.616700000000     0.330700000000     0          
C30      C      0.678000000000     0.709600000000     0.495700000000     0          
H19      H      0.685040000000     0.690290000000     0.476570000000     0          
H20      H      0.653720000000     0.710410000000     0.496830000000     0          
H21      H      0.686740000000     0.707470000000     0.528240000000     0          
C32      C      0.529800000000     0.954000000000     0.452000000000     0          
C33      C      0.529900000000     0.972500000000     0.408600000000     0          
C42      C      0.563300000000     0.945200000000     0.474700000000     0          
H26      H      0.580560000000     0.945540000000     0.450100000000     0          
H27      H      0.562080000000     0.922760000000     0.488950000000     0          
H28      H      0.568560000000     0.961680000000     0.499550000000     0          
C43      C      0.562200000000     0.980800000000     0.385100000000     0          
C44      C      0.579000000000     0.010300000000     0.396300000000     0          
H29      H      0.569400000000     0.026140000000     0.417610000000     0          
C45      C      0.609300000000     0.016300000000     0.376400000000     0          
H30      H      0.620730000000     0.036420000000     0.384060000000     0          
C46      C      0.624000000000     0.993300000000     0.344700000000     0          
C47      C      0.606500000000     0.964300000000     0.334200000000     0          
H31      H      0.615590000000     0.948280000000     0.312630000000     0          
C48      C      0.577300000000     0.958700000000     0.354100000000     0          
H32      H      0.566100000000     0.938410000000     0.346540000000     0          
C49      C      0.657700000000     0.999800000000     0.323700000000     0          
C52      C      0.469900000000     0.593000000000     0.039200000000     0          
C53      C      0.470500000000     0.573800000000     0.079700000000     0          
C62      C      0.437900000000     0.606000000000     0.017600000000     0          
H37      H      0.419940000000     0.603920000000     0.041030000000     0          
H38      H      0.432390000000     0.592850000000     0.989050000000     0          
H39      H      0.440570000000     0.629650000000     0.008720000000     0          
C63      C      0.437800000000     0.565600000000     0.103300000000     0          
C64      C      0.419500000000     0.537700000000     0.090400000000     0          
H40      H      0.427440000000     0.523940000000     0.065040000000     0          
C65      C      0.389600000000     0.528800000000     0.113300000000     0          
H41      H      0.378400000000     0.508450000000     0.106280000000     0          
C66      C      0.377300000000     0.552000000000     0.147400000000     0          
C67      C      0.395900000000     0.578700000000     0.160300000000     0          
H42      H      0.388470000000     0.593240000000     0.185060000000     0          
C68      C      0.425300000000     0.584900000000     0.137900000000     0          
H43      H      0.437640000000     0.604060000000     0.147470000000     0          
C69      C      0.345000000000     0.544100000000     0.170500000000     0          
H44?     H      0.477110000000     0.537460000000     0.154280000000     0          
H45?     H      0.511030000000     0.554760000000     0.170760000000     0          
H46?     H      0.511850000000     0.521380000000     0.138950000000     0          
H47?     H      0.477110000000     0.002390000000     0.327090000000     0          
H48?     H      0.511100000000     0.983920000000     0.313830000000     0          
H49?     H      0.511790000000     0.019790000000     0.339590000000     0          
Zr1      Zr     0.561780000000     0.777180000000     0.750000000000     0          
Zr2      Zr     0.500000000000     0.840600000000     0.750000000000     0          
Zr4      Zr     0.500000000000     0.714090000000     0.750000000000     0          
Zr3      Zr     0.500000000000     0.777210000000     0.837900000000     0          
O23      O      0.500000000000     0.864600000000     0.674400000000     0          
O24      O      0.500000000000     0.823300000000     0.621500000000     0          
O27      O      0.500000000000     0.730200000000     0.877700000000     0          
O28      O      0.500000000000     0.689700000000     0.823700000000     0          
C31      C      0.500000000000     0.945200000000     0.472300000000     0          
C34      C      0.500000000000     0.981400000000     0.385200000000     0          
C35      C      0.500000000000     0.922200000000     0.514300000000     0          
C36      C      0.500000000000     0.888500000000     0.509400000000     0          
H22      H      0.500000000000     0.879900000000     0.477700000000     0          
C37      C      0.500000000000     0.865400000000     0.546100000000     0          
H23      H      0.500000000000     0.841900000000     0.540100000000     0          
C38      C      0.500000000000     0.878400000000     0.592600000000     0          
C39      C      0.500000000000     0.913400000000     0.599300000000     0          
H24      H      0.500000000000     0.922020000000     0.630990000000     0          
C40      C      0.500000000000     0.935000000000     0.562500000000     0          
H25      H      0.500000000000     0.958490000000     0.568090000000     0          
C41      C      0.500000000000     0.854100000000     0.633800000000     0          
C50      C      0.500000000000     0.998300000000     0.337300000000     0          
C51      C      0.500000000000     0.603600000000     0.018000000000     0          
C54      C      0.500000000000     0.563500000000     0.100000000000     0          
C55      C      0.500000000000     0.626800000000     0.977200000000     0          
C56      C      0.500000000000     0.662400000000     0.987100000000     0          
H33      H      0.500000000000     0.669350000000     0.019560000000     0          
C57      C      0.500000000000     0.687700000000     0.950900000000     0          
H34      H      0.500000000000     0.711040000000     0.958040000000     0          
C58      C      0.500000000000     0.675400000000     0.904300000000     0          
C59      C      0.500000000000     0.640400000000     0.893800000000     0          
H35      H      0.500000000000     0.632880000000     0.861560000000     0          
C60      C      0.500000000000     0.617900000000     0.930600000000     0          
H36      H      0.500000000000     0.594640000000     0.923030000000     0          
C61      C      0.500000000000     0.700400000000     0.865100000000     0          
C70      C      0.500000000000     0.542400000000     0.145000000000     0          
Zr5      Zr     0.712120000000     0.974350000000     0.250000000000     0          
Zr8      Zr     0.792730000000     0.066280000000     0.250000000000     0          
O8       O      0.706800000000     0.027100000000     0.250000000000     0          
O9       O      0.763100000000     0.974100000000     0.250000000000     0          
O11      O      0.739100000000     0.078400000000     0.250000000000     0          
O12      O      0.810500000000     0.011600000000     0.250000000000     0          
Zr6      Zr     0.280480000000     0.949580000000     0.687360000000     0          
Zr7      Zr     0.215070000000     0.009410000000     0.686360000000     0          
O1       O      0.469500000000     0.191000000000     0.207900000000     0          
O2       O      0.467800000000     0.254400000000     0.293800000000     0          
O7       O      0.268450000000     0.003240000000     0.678600000000     0          
O10      O      0.229980000000     0.959000000000     0.694500000000     0          
O13      O      0.412990000000     0.221900000000     0.179300000000     0          
O14      O      0.451860000000     0.223000000000     0.123200000000     0          
O16      O      0.280000000000     0.952800000000     0.609100000000     0          
O17      O      0.217900000000     0.008400000000     0.608200000000     0          
O19      O      0.281650000000     0.068980000000     0.798000000000     0          
O20      O      0.234180000000     0.061100000000     0.837300000000     0          
O21      O      0.239780000000     0.401580000000     0.841200000000     0          
O22      O      0.285830000000     0.390390000000     0.799000000000     0          
O25      O      0.330990000000     0.023490000000     0.797000000000     0          
O26      O      0.328260000000     0.972960000000     0.834800000000     0          
O29      O      0.664340000000     0.435180000000     0.701800000000     0          
O30      O      0.669750000000     0.482500000000     0.659600000000     0          
C1       C      0.319800000000     0.228000000000     0.991500000000     0          
C2       C      0.307600000000     0.197500000000     0.972100000000     0          
C3       C      0.286500000000     0.199400000000     0.933100000000     0          
C4       C      0.276100000000     0.230000000000     0.913400000000     0          
C5       C      0.288000000000     0.260000000000     0.933400000000     0          
C6       C      0.309000000000     0.258500000000     0.973300000000     0          
C7       C      0.345600000000     0.226500000000     0.030200000000     0          
C8       C      0.338200000000     0.227500000000     0.078000000000     0          
H1       H      0.315690000000     0.229600000000     0.087490000000     0          
C9       C      0.362000000000     0.225500000000     0.112300000000     0          
H2       H      0.355960000000     0.224900000000     0.145150000000     0          
C10      C      0.395800000000     0.224400000000     0.098700000000     0          
C11      C      0.403600000000     0.224400000000     0.051100000000     0          
H3       H      0.426140000000     0.223000000000     0.041560000000     0          
C12      C      0.379500000000     0.226300000000     0.017100000000     0          
H4       H      0.385440000000     0.227480000000     0.984280000000     0          
C13      C      0.422300000000     0.222100000000     0.136400000000     0          
C14      C      0.319800000000     0.164200000000     0.990500000000     0          
H5       H      0.304770000000     0.146340000000     0.979970000000     0          
H6       H      0.320580000000     0.164660000000     0.025490000000     0          
H7       H      0.342090000000     0.159830000000     0.977920000000     0          
C15      C      0.277800000000     0.168000000000     0.906800000000     0          
C16      C      0.250000000000     0.148800000000     0.915900000000     0          
H8       H      0.235030000000     0.155280000000     0.940360000000     0          
C17      C      0.244000000000     0.119800000000     0.888900000000     0          
H9       H      0.224080000000     0.107720000000     0.894750000000     0          
C18      C      0.264800000000     0.108100000000     0.855100000000     0          
C19      C      0.293600000000     0.127000000000     0.845000000000     0          
H10      H      0.308970000000     0.119890000000     0.821270000000     0          
C20      C      0.299000000000     0.157200000000     0.871300000000     0          
H11      H      0.317960000000     0.170350000000     0.864080000000     0          
C21      C      0.259400000000     0.076400000000     0.827400000000     0          
C22      C      0.252900000000     0.231200000000     0.871700000000     0          
H12      H      0.264570000000     0.240040000000     0.843660000000     0          
H13      H      0.234090000000     0.245770000000     0.879330000000     0          
H14      H      0.244830000000     0.208490000000     0.864710000000     0          
C23      C      0.280800000000     0.293500000000     0.909800000000     0          
C24      C      0.300800000000     0.301400000000     0.871700000000     0          
H15      H      0.318370000000     0.286710000000     0.862940000000     0          
C25      C      0.295500000000     0.330900000000     0.845700000000     0          
H16      H      0.309180000000     0.335960000000     0.819000000000     0          
C26      C      0.270700000000     0.352600000000     0.858600000000     0          
C27      C      0.250000000000     0.342700000000     0.896800000000     0          
H17      H      0.231850000000     0.356540000000     0.905550000000     0          
C28      C      0.255800000000     0.313200000000     0.921800000000     0          
H18      H      0.241670000000     0.307140000000     0.947610000000     0          
C29      C      0.265200000000     0.383300000000     0.830700000000     0          
C30      C      0.322000000000     0.290400000000     0.995700000000     0          
H19      H      0.314960000000     0.309710000000     0.976570000000     0          
H20      H      0.346280000000     0.289590000000     0.996830000000     0          
H21      H      0.313260000000     0.292530000000     0.028240000000     0          
C32      C      0.470200000000     0.046000000000     0.952000000000     0          
C33      C      0.470100000000     0.027500000000     0.908600000000     0          
C42      C      0.436700000000     0.054800000000     0.974700000000     0          
H26      H      0.419440000000     0.054460000000     0.950100000000     0          
H27      H      0.437920000000     0.077240000000     0.988950000000     0          
H28      H      0.431440000000     0.038320000000     0.999550000000     0          
C43      C      0.437800000000     0.019200000000     0.885100000000     0          
C44      C      0.421000000000     0.989700000000     0.896300000000     0          
H29      H      0.430600000000     0.973860000000     0.917610000000     0          
C45      C      0.390700000000     0.983700000000     0.876400000000     0          
H30      H      0.379270000000     0.963580000000     0.884060000000     0          
C46      C      0.376000000000     0.006700000000     0.844700000000     0          
C47      C      0.393500000000     0.035700000000     0.834200000000     0          
H31      H      0.384410000000     0.051720000000     0.812630000000     0          
C48      C      0.422700000000     0.041300000000     0.854100000000     0          
H32      H      0.433900000000     0.061590000000     0.846540000000     0          
C49      C      0.342300000000     0.000200000000     0.823700000000     0          
C52      C      0.530100000000     0.407000000000     0.539200000000     0          
C53      C      0.529500000000     0.426200000000     0.579700000000     0          
C62      C      0.562100000000     0.394000000000     0.517600000000     0          
H37      H      0.580060000000     0.396080000000     0.541030000000     0          
H38      H      0.567610000000     0.407150000000     0.489050000000     0          
H39      H      0.559430000000     0.370350000000     0.508720000000     0          
C63      C      0.562200000000     0.434400000000     0.603300000000     0          
C64      C      0.580500000000     0.462300000000     0.590400000000     0          
H40      H      0.572560000000     0.476060000000     0.565040000000     0          
C65      C      0.610400000000     0.471200000000     0.613300000000     0          
H41      H      0.621600000000     0.491550000000     0.606280000000     0          
C66      C      0.622700000000     0.448000000000     0.647400000000     0          
C67      C      0.604100000000     0.421300000000     0.660300000000     0          
H42      H      0.611530000000     0.406760000000     0.685060000000     0          
C68      C      0.574700000000     0.415100000000     0.637900000000     0          
H43      H      0.562360000000     0.395940000000     0.647470000000     0          
C69      C      0.655000000000     0.455900000000     0.670500000000     0          
H44?     H      0.522890000000     0.462540000000     0.654280000000     0          
H45?     H      0.488970000000     0.445240000000     0.670760000000     0          
H46?     H      0.488150000000     0.478620000000     0.638950000000     0          
H47?     H      0.522890000000     0.997610000000     0.827090000000     0          
H48?     H      0.488900000000     0.016080000000     0.813830000000     0          
H49?     H      0.488210000000     0.980210000000     0.839590000000     0          
Zr1      Zr     0.438220000000     0.222820000000     0.250000000000     0          
Zr2      Zr     0.500000000000     0.159400000000     0.250000000000     0          
Zr4      Zr     0.500000000000     0.285910000000     0.250000000000     0          
Zr3      Zr     0.500000000000     0.222790000000     0.337900000000     0          
O23      O      0.500000000000     0.135400000000     0.174400000000     0          
O24      O      0.500000000000     0.176700000000     0.121500000000     0          
O27      O      0.500000000000     0.269800000000     0.377700000000     0          
O28      O      0.500000000000     0.310300000000     0.323700000000     0          
C31      C      0.500000000000     0.054800000000     0.972300000000     0          
C34      C      0.500000000000     0.018600000000     0.885200000000     0          
C35      C      0.500000000000     0.077800000000     0.014300000000     0          
C36      C      0.500000000000     0.111500000000     0.009400000000     0          
H22      H      0.500000000000     0.120100000000     0.977700000000     0          
C37      C      0.500000000000     0.134600000000     0.046100000000     0          
H23      H      0.500000000000     0.158100000000     0.040100000000     0          
C38      C      0.500000000000     0.121600000000     0.092600000000     0          
C39      C      0.500000000000     0.086600000000     0.099300000000     0          
H24      H      0.500000000000     0.077980000000     0.130990000000     0          
C40      C      0.500000000000     0.065000000000     0.062500000000     0          
H25      H      0.500000000000     0.041510000000     0.068090000000     0          
C41      C      0.500000000000     0.145900000000     0.133800000000     0          
C50      C      0.500000000000     0.001700000000     0.837300000000     0          
C51      C      0.500000000000     0.396400000000     0.518000000000     0          
C54      C      0.500000000000     0.436500000000     0.600000000000     0          
C55      C      0.500000000000     0.373200000000     0.477200000000     0          
C56      C      0.500000000000     0.337600000000     0.487100000000     0          
H33      H      0.500000000000     0.330650000000     0.519560000000     0          
C57      C      0.500000000000     0.312300000000     0.450900000000     0          
H34      H      0.500000000000     0.288960000000     0.458040000000     0          
C58      C      0.500000000000     0.324600000000     0.404300000000     0          
C59      C      0.500000000000     0.359600000000     0.393800000000     0          
H35      H      0.500000000000     0.367120000000     0.361560000000     0          
C60      C      0.500000000000     0.382100000000     0.430600000000     0          
H36      H      0.500000000000     0.405360000000     0.423030000000     0          
C61      C      0.500000000000     0.299600000000     0.365100000000     0          
C70      C      0.500000000000     0.457600000000     0.645000000000     0          
Zr5      Zr     0.287880000000     0.025650000000     0.750000000000     0          
Zr8      Zr     0.207270000000     0.933720000000     0.750000000000     0          
O8       O      0.293200000000     0.972900000000     0.750000000000     0          
O9       O      0.236900000000     0.025900000000     0.750000000000     0          
O11      O      0.260900000000     0.921600000000     0.750000000000     0          
O12      O      0.189500000000     0.988400000000     0.750000000000     0          
Zr6      Zr     0.719520000000     0.949580000000     0.812640000000     0          
Zr7      Zr     0.784930000000     0.009410000000     0.813640000000     0          
O1       O      0.530500000000     0.191000000000     0.292100000000     0          
O2       O      0.532200000000     0.254400000000     0.206200000000     0          
O7       O      0.731550000000     0.003240000000     0.821400000000     0          
O10      O      0.770020000000     0.959000000000     0.805500000000     0          
O13      O      0.587010000000     0.221900000000     0.320700000000     0          
O14      O      0.548140000000     0.223000000000     0.376800000000     0          
O16      O      0.720000000000     0.952800000000     0.890900000000     0          
O17      O      0.782100000000     0.008400000000     0.891800000000     0          
O19      O      0.718350000000     0.068980000000     0.702000000000     0          
O20      O      0.765820000000     0.061100000000     0.662700000000     0          
O21      O      0.760220000000     0.401580000000     0.658800000000     0          
O22      O      0.714170000000     0.390390000000     0.701000000000     0          
O25      O      0.669010000000     0.023490000000     0.703000000000     0          
O26      O      0.671740000000     0.972960000000     0.665200000000     0          
O29      O      0.335660000000     0.435180000000     0.798200000000     0          
O30      O      0.330250000000     0.482500000000     0.840400000000     0          
C1       C      0.680200000000     0.228000000000     0.508500000000     0          
C2       C      0.692400000000     0.197500000000     0.527900000000     0          
C3       C      0.713500000000     0.199400000000     0.566900000000     0          
C4       C      0.723900000000     0.230000000000     0.586600000000     0          
C5       C      0.712000000000     0.260000000000     0.566600000000     0          
C6       C      0.691000000000     0.258500000000     0.526700000000     0          
C7       C      0.654400000000     0.226500000000     0.469800000000     0          
C8       C      0.661800000000     0.227500000000     0.422000000000     0          
H1       H      0.684310000000     0.229600000000     0.412510000000     0          
C9       C      0.638000000000     0.225500000000     0.387700000000     0          
H2       H      0.644040000000     0.224900000000     0.354850000000     0          
C10      C      0.604200000000     0.224400000000     0.401300000000     0          
C11      C      0.596400000000     0.224400000000     0.448900000000     0          
H3       H      0.573860000000     0.223000000000     0.458440000000     0          
C12      C      0.620500000000     0.226300000000     0.482900000000     0          
H4       H      0.614560000000     0.227480000000     0.515720000000     0          
C13      C      0.577700000000     0.222100000000     0.363600000000     0          
C14      C      0.680200000000     0.164200000000     0.509500000000     0          
H5       H      0.695230000000     0.146340000000     0.520030000000     0          
H6       H      0.679420000000     0.164660000000     0.474510000000     0          
H7       H      0.657910000000     0.159830000000     0.522080000000     0          
C15      C      0.722200000000     0.168000000000     0.593200000000     0          
C16      C      0.750000000000     0.148800000000     0.584100000000     0          
H8       H      0.764970000000     0.155280000000     0.559640000000     0          
C17      C      0.756000000000     0.119800000000     0.611100000000     0          
H9       H      0.775920000000     0.107720000000     0.605250000000     0          
C18      C      0.735200000000     0.108100000000     0.644900000000     0          
C19      C      0.706400000000     0.127000000000     0.655000000000     0          
H10      H      0.691030000000     0.119890000000     0.678730000000     0          
C20      C      0.701000000000     0.157200000000     0.628700000000     0          
H11      H      0.682040000000     0.170350000000     0.635920000000     0          
C21      C      0.740600000000     0.076400000000     0.672600000000     0          
C22      C      0.747100000000     0.231200000000     0.628300000000     0          
H12      H      0.735430000000     0.240040000000     0.656340000000     0          
H13      H      0.765910000000     0.245770000000     0.620670000000     0          
H14      H      0.755170000000     0.208490000000     0.635290000000     0          
C23      C      0.719200000000     0.293500000000     0.590200000000     0          
C24      C      0.699200000000     0.301400000000     0.628300000000     0          
H15      H      0.681630000000     0.286710000000     0.637060000000     0          
C25      C      0.704500000000     0.330900000000     0.654300000000     0          
H16      H      0.690820000000     0.335960000000     0.681000000000     0          
C26      C      0.729300000000     0.352600000000     0.641400000000     0          
C27      C      0.750000000000     0.342700000000     0.603200000000     0          
H17      H      0.768150000000     0.356540000000     0.594450000000     0          
C28      C      0.744200000000     0.313200000000     0.578200000000     0          
H18      H      0.758330000000     0.307140000000     0.552390000000     0          
C29      C      0.734800000000     0.383300000000     0.669300000000     0          
C30      C      0.678000000000     0.290400000000     0.504300000000     0          
H19      H      0.685040000000     0.309710000000     0.523430000000     0          
H20      H      0.653720000000     0.289590000000     0.503170000000     0          
H21      H      0.686740000000     0.292530000000     0.471760000000     0          
C32      C      0.529800000000     0.046000000000     0.548000000000     0          
C33      C      0.529900000000     0.027500000000     0.591400000000     0          
C42      C      0.563300000000     0.054800000000     0.525300000000     0          
H26      H      0.580560000000     0.054460000000     0.549900000000     0          
H27      H      0.562080000000     0.077240000000     0.511050000000     0          
H28      H      0.568560000000     0.038320000000     0.500450000000     0          
C43      C      0.562200000000     0.019200000000     0.614900000000     0          
C44      C      0.579000000000     0.989700000000     0.603700000000     0          
H29      H      0.569400000000     0.973860000000     0.582390000000     0          
C45      C      0.609300000000     0.983700000000     0.623600000000     0          
H30      H      0.620730000000     0.963580000000     0.615940000000     0          
C46      C      0.624000000000     0.006700000000     0.655300000000     0          
C47      C      0.606500000000     0.035700000000     0.665800000000     0          
H31      H      0.615590000000     0.051720000000     0.687370000000     0          
C48      C      0.577300000000     0.041300000000     0.645900000000     0          
H32      H      0.566100000000     0.061590000000     0.653460000000     0          
C49      C      0.657700000000     0.000200000000     0.676300000000     0          
C52      C      0.469900000000     0.407000000000     0.960800000000     0          
C53      C      0.470500000000     0.426200000000     0.920300000000     0          
C62      C      0.437900000000     0.394000000000     0.982400000000     0          
H37      H      0.419940000000     0.396080000000     0.958970000000     0          
H38      H      0.432390000000     0.407150000000     0.010950000000     0          
H39      H      0.440570000000     0.370350000000     0.991280000000     0          
C63      C      0.437800000000     0.434400000000     0.896700000000     0          
C64      C      0.419500000000     0.462300000000     0.909600000000     0          
H40      H      0.427440000000     0.476060000000     0.934960000000     0          
C65      C      0.389600000000     0.471200000000     0.886700000000     0          
H41      H      0.378400000000     0.491550000000     0.893720000000     0          
C66      C      0.377300000000     0.448000000000     0.852600000000     0          
C67      C      0.395900000000     0.421300000000     0.839700000000     0          
H42      H      0.388470000000     0.406760000000     0.814940000000     0          
C68      C      0.425300000000     0.415100000000     0.862100000000     0          
H43      H      0.437640000000     0.395940000000     0.852530000000     0          
C69      C      0.345000000000     0.455900000000     0.829500000000     0          
H44?     H      0.477110000000     0.462540000000     0.845720000000     0          
H45?     H      0.511030000000     0.445240000000     0.829240000000     0          
H46?     H      0.511850000000     0.478620000000     0.861050000000     0          
H47?     H      0.477110000000     0.997610000000     0.672910000000     0          
H48?     H      0.511100000000     0.016080000000     0.686170000000     0          
H49?     H      0.511790000000     0.980210000000     0.660410000000     0          
Zr1      Zr     0.561780000000     0.222820000000     0.250000000000     0          
Zr3      Zr     0.500000000000     0.222790000000     0.162100000000     0          
O23      O      0.500000000000     0.135400000000     0.325600000000     0          
O24      O      0.500000000000     0.176700000000     0.378500000000     0          
O27      O      0.500000000000     0.269800000000     0.122300000000     0          
O28      O      0.500000000000     0.310300000000     0.176300000000     0          
C31      C      0.500000000000     0.054800000000     0.527700000000     0          
C34      C      0.500000000000     0.018600000000     0.614800000000     0          
C35      C      0.500000000000     0.077800000000     0.485700000000     0          
C36      C      0.500000000000     0.111500000000     0.490600000000     0          
H22      H      0.500000000000     0.120100000000     0.522300000000     0          
C37      C      0.500000000000     0.134600000000     0.453900000000     0          
H23      H      0.500000000000     0.158100000000     0.459900000000     0          
C38      C      0.500000000000     0.121600000000     0.407400000000     0          
C39      C      0.500000000000     0.086600000000     0.400700000000     0          
H24      H      0.500000000000     0.077980000000     0.369010000000     0          
C40      C      0.500000000000     0.065000000000     0.437500000000     0          
H25      H      0.500000000000     0.041510000000     0.431910000000     0          
C41      C      0.500000000000     0.145900000000     0.366200000000     0          
C50      C      0.500000000000     0.001700000000     0.662700000000     0          
C51      C      0.500000000000     0.396400000000     0.982000000000     0          
C54      C      0.500000000000     0.436500000000     0.900000000000     0          
C55      C      0.500000000000     0.373200000000     0.022800000000     0          
C56      C      0.500000000000     0.337600000000     0.012900000000     0          
H33      H      0.500000000000     0.330650000000     0.980440000000     0          
C57      C      0.500000000000     0.312300000000     0.049100000000     0          
H34      H      0.500000000000     0.288960000000     0.041960000000     0          
C58      C      0.500000000000     0.324600000000     0.095700000000     0          
C59      C      0.500000000000     0.359600000000     0.106200000000     0          
H35      H      0.500000000000     0.367120000000     0.138440000000     0          
C60      C      0.500000000000     0.382100000000     0.069400000000     0          
H36      H      0.500000000000     0.405360000000     0.076970000000     0          
C61      C      0.500000000000     0.299600000000     0.134900000000     0          
C70      C      0.500000000000     0.457600000000     0.855000000000     0          
Zr5      Zr     0.712120000000     0.025650000000     0.750000000000     0          
Zr8      Zr     0.792730000000     0.933720000000     0.750000000000     0          
O8       O      0.706800000000     0.972900000000     0.750000000000     0          
O9       O      0.763100000000     0.025900000000     0.750000000000     0          
O11      O      0.739100000000     0.921600000000     0.750000000000     0          
O12      O      0.810500000000     0.988400000000     0.750000000000     0          
Zr6      Zr     0.280480000000     0.050420000000     0.312640000000     0          
Zr7      Zr     0.215070000000     0.990590000000     0.313640000000     0          
O1       O      0.469500000000     0.809000000000     0.792100000000     0          
O2       O      0.467800000000     0.745600000000     0.706200000000     0          
O7       O      0.268450000000     0.996760000000     0.321400000000     0          
O10      O      0.229980000000     0.041000000000     0.305500000000     0          
O13      O      0.412990000000     0.778100000000     0.820700000000     0          
O14      O      0.451860000000     0.777000000000     0.876800000000     0          
O16      O      0.280000000000     0.047200000000     0.390900000000     0          
O17      O      0.217900000000     0.991600000000     0.391800000000     0          
O19      O      0.281650000000     0.931020000000     0.202000000000     0          
O20      O      0.234180000000     0.938900000000     0.162700000000     0          
O21      O      0.239780000000     0.598420000000     0.158800000000     0          
O22      O      0.285830000000     0.609610000000     0.201000000000     0          
O25      O      0.330990000000     0.976510000000     0.203000000000     0          
O26      O      0.328260000000     0.027040000000     0.165200000000     0          
O29      O      0.664340000000     0.564820000000     0.298200000000     0          
O30      O      0.669750000000     0.517500000000     0.340400000000     0          
C1       C      0.319800000000     0.772000000000     0.008500000000     0          
C2       C      0.307600000000     0.802500000000     0.027900000000     0          
C3       C      0.286500000000     0.800600000000     0.066900000000     0          
C4       C      0.276100000000     0.770000000000     0.086600000000     0          
C5       C      0.288000000000     0.740000000000     0.066600000000     0          
C6       C      0.309000000000     0.741500000000     0.026700000000     0          
C7       C      0.345600000000     0.773500000000     0.969800000000     0          
C8       C      0.338200000000     0.772500000000     0.922000000000     0          
H1       H      0.315690000000     0.770400000000     0.912510000000     0          
C9       C      0.362000000000     0.774500000000     0.887700000000     0          
H2       H      0.355960000000     0.775100000000     0.854850000000     0          
C10      C      0.395800000000     0.775600000000     0.901300000000     0          
C11      C      0.403600000000     0.775600000000     0.948900000000     0          
H3       H      0.426140000000     0.777000000000     0.958440000000     0          
C12      C      0.379500000000     0.773700000000     0.982900000000     0          
H4       H      0.385440000000     0.772520000000     0.015720000000     0          
C13      C      0.422300000000     0.777900000000     0.863600000000     0          
C14      C      0.319800000000     0.835800000000     0.009500000000     0          
H5       H      0.304770000000     0.853660000000     0.020030000000     0          
H6       H      0.320580000000     0.835340000000     0.974510000000     0          
H7       H      0.342090000000     0.840170000000     0.022080000000     0          
C15      C      0.277800000000     0.832000000000     0.093200000000     0          
C16      C      0.250000000000     0.851200000000     0.084100000000     0          
H8       H      0.235030000000     0.844720000000     0.059640000000     0          
C17      C      0.244000000000     0.880200000000     0.111100000000     0          
H9       H      0.224080000000     0.892280000000     0.105250000000     0          
C18      C      0.264800000000     0.891900000000     0.144900000000     0          
C19      C      0.293600000000     0.873000000000     0.155000000000     0          
H10      H      0.308970000000     0.880110000000     0.178730000000     0          
C20      C      0.299000000000     0.842800000000     0.128700000000     0          
H11      H      0.317960000000     0.829650000000     0.135920000000     0          
C21      C      0.259400000000     0.923600000000     0.172600000000     0          
C22      C      0.252900000000     0.768800000000     0.128300000000     0          
H12      H      0.264570000000     0.759960000000     0.156340000000     0          
H13      H      0.234090000000     0.754230000000     0.120670000000     0          
H14      H      0.244830000000     0.791510000000     0.135290000000     0          
C23      C      0.280800000000     0.706500000000     0.090200000000     0          
C24      C      0.300800000000     0.698600000000     0.128300000000     0          
H15      H      0.318370000000     0.713290000000     0.137060000000     0          
C25      C      0.295500000000     0.669100000000     0.154300000000     0          
H16      H      0.309180000000     0.664040000000     0.181000000000     0          
C26      C      0.270700000000     0.647400000000     0.141400000000     0          
C27      C      0.250000000000     0.657300000000     0.103200000000     0          
H17      H      0.231850000000     0.643460000000     0.094450000000     0          
C28      C      0.255800000000     0.686800000000     0.078200000000     0          
H18      H      0.241670000000     0.692860000000     0.052390000000     0          
C29      C      0.265200000000     0.616700000000     0.169300000000     0          
C30      C      0.322000000000     0.709600000000     0.004300000000     0          
H19      H      0.314960000000     0.690290000000     0.023430000000     0          
H20      H      0.346280000000     0.710410000000     0.003170000000     0          
H21      H      0.313260000000     0.707470000000     0.971760000000     0          
C32      C      0.470200000000     0.954000000000     0.048000000000     0          
C33      C      0.470100000000     0.972500000000     0.091400000000     0          
C42      C      0.436700000000     0.945200000000     0.025300000000     0          
H26      H      0.419440000000     0.945540000000     0.049900000000     0          
H27      H      0.437920000000     0.922760000000     0.011050000000     0          
H28      H      0.431440000000     0.961680000000     0.000450000000     0          
C43      C      0.437800000000     0.980800000000     0.114900000000     0          
C44      C      0.421000000000     0.010300000000     0.103700000000     0          
H29      H      0.430600000000     0.026140000000     0.082390000000     0          
C45      C      0.390700000000     0.016300000000     0.123600000000     0          
H30      H      0.379270000000     0.036420000000     0.115940000000     0          
C46      C      0.376000000000     0.993300000000     0.155300000000     0          
C47      C      0.393500000000     0.964300000000     0.165800000000     0          
H31      H      0.384410000000     0.948280000000     0.187370000000     0          
C48      C      0.422700000000     0.958700000000     0.145900000000     0          
H32      H      0.433900000000     0.938410000000     0.153460000000     0          
C49      C      0.342300000000     0.999800000000     0.176300000000     0          
C52      C      0.530100000000     0.593000000000     0.460800000000     0          
C53      C      0.529500000000     0.573800000000     0.420300000000     0          
C62      C      0.562100000000     0.606000000000     0.482400000000     0          
H37      H      0.580060000000     0.603920000000     0.458970000000     0          
H38      H      0.567610000000     0.592850000000     0.510950000000     0          
H39      H      0.559430000000     0.629650000000     0.491280000000     0          
C63      C      0.562200000000     0.565600000000     0.396700000000     0          
C64      C      0.580500000000     0.537700000000     0.409600000000     0          
H40      H      0.572560000000     0.523940000000     0.434960000000     0          
C65      C      0.610400000000     0.528800000000     0.386700000000     0          
H41      H      0.621600000000     0.508450000000     0.393720000000     0          
C66      C      0.622700000000     0.552000000000     0.352600000000     0          
C67      C      0.604100000000     0.578700000000     0.339700000000     0          
H42      H      0.611530000000     0.593240000000     0.314940000000     0          
C68      C      0.574700000000     0.584900000000     0.362100000000     0          
H43      H      0.562360000000     0.604060000000     0.352530000000     0          
C69      C      0.655000000000     0.544100000000     0.329500000000     0          
H44?     H      0.522890000000     0.537460000000     0.345720000000     0          
H45?     H      0.488970000000     0.554760000000     0.329240000000     0          
H46?     H      0.488150000000     0.521380000000     0.361050000000     0          
H47?     H      0.522890000000     0.002390000000     0.172910000000     0          
H48?     H      0.488900000000     0.983920000000     0.186170000000     0          
H49?     H      0.488210000000     0.019790000000     0.160410000000     0          
Zr1      Zr     0.438220000000     0.777180000000     0.750000000000     0          
Zr3      Zr     0.500000000000     0.777210000000     0.662100000000     0          
O23      O      0.500000000000     0.864600000000     0.825600000000     0          
O24      O      0.500000000000     0.823300000000     0.878500000000     0          
O27      O      0.500000000000     0.730200000000     0.622300000000     0          
O28      O      0.500000000000     0.689700000000     0.676300000000     0          
C31      C      0.500000000000     0.945200000000     0.027700000000     0          
C34      C      0.500000000000     0.981400000000     0.114800000000     0          
C35      C      0.500000000000     0.922200000000     0.985700000000     0          
C36      C      0.500000000000     0.888500000000     0.990600000000     0          
H22      H      0.500000000000     0.879900000000     0.022300000000     0          
C37      C      0.500000000000     0.865400000000     0.953900000000     0          
H23      H      0.500000000000     0.841900000000     0.959900000000     0          
C38      C      0.500000000000     0.878400000000     0.907400000000     0          
C39      C      0.500000000000     0.913400000000     0.900700000000     0          
H24      H      0.500000000000     0.922020000000     0.869010000000     0          
C40      C      0.500000000000     0.935000000000     0.937500000000     0          
H25      H      0.500000000000     0.958490000000     0.931910000000     0          
C41      C      0.500000000000     0.854100000000     0.866200000000     0          
C50      C      0.500000000000     0.998300000000     0.162700000000     0          
C51      C      0.500000000000     0.603600000000     0.482000000000     0          
C54      C      0.500000000000     0.563500000000     0.400000000000     0          
C55      C      0.500000000000     0.626800000000     0.522800000000     0          
C56      C      0.500000000000     0.662400000000     0.512900000000     0          
H33      H      0.500000000000     0.669350000000     0.480440000000     0          
C57      C      0.500000000000     0.687700000000     0.549100000000     0          
H34      H      0.500000000000     0.711040000000     0.541960000000     0          
C58      C      0.500000000000     0.675400000000     0.595700000000     0          
C59      C      0.500000000000     0.640400000000     0.606200000000     0          
H35      H      0.500000000000     0.632880000000     0.638440000000     0          
C60      C      0.500000000000     0.617900000000     0.569400000000     0          
H36      H      0.500000000000     0.594640000000     0.576970000000     0          
C61      C      0.500000000000     0.700400000000     0.634900000000     0          
C70      C      0.500000000000     0.542400000000     0.355000000000     0          
Zr5      Zr     0.287880000000     0.974350000000     0.250000000000     0          
Zr8      Zr     0.207270000000     0.066280000000     0.250000000000     0          
O8       O      0.293200000000     0.027100000000     0.250000000000     0          
O9       O      0.236900000000     0.974100000000     0.250000000000     0          
O11      O      0.260900000000     0.078400000000     0.250000000000     0          
O12      O      0.189500000000     0.011600000000     0.250000000000     0          
Zr6      Zr     0.280480000000     0.949580000000     0.812640000000     0          
Zr7      Zr     0.215070000000     0.009410000000     0.813640000000     0          
O1       O      0.469500000000     0.191000000000     0.292100000000     0          
O2       O      0.467800000000     0.254400000000     0.206200000000     0          
O7       O      0.268450000000     0.003240000000     0.821400000000     0          
O10      O      0.229980000000     0.959000000000     0.805500000000     0          
O13      O      0.412990000000     0.221900000000     0.320700000000     0          
O14      O      0.451860000000     0.223000000000     0.376800000000     0          
O16      O      0.280000000000     0.952800000000     0.890900000000     0          
O17      O      0.217900000000     0.008400000000     0.891800000000     0          
O19      O      0.281650000000     0.068980000000     0.702000000000     0          
O20      O      0.234180000000     0.061100000000     0.662700000000     0          
O21      O      0.239780000000     0.401580000000     0.658800000000     0          
O22      O      0.285830000000     0.390390000000     0.701000000000     0          
O25      O      0.330990000000     0.023490000000     0.703000000000     0          
O26      O      0.328260000000     0.972960000000     0.665200000000     0          
O29      O      0.664340000000     0.435180000000     0.798200000000     0          
O30      O      0.669750000000     0.482500000000     0.840400000000     0          
C1       C      0.319800000000     0.228000000000     0.508500000000     0          
C2       C      0.307600000000     0.197500000000     0.527900000000     0          
C3       C      0.286500000000     0.199400000000     0.566900000000     0          
C4       C      0.276100000000     0.230000000000     0.586600000000     0          
C5       C      0.288000000000     0.260000000000     0.566600000000     0          
C6       C      0.309000000000     0.258500000000     0.526700000000     0          
C7       C      0.345600000000     0.226500000000     0.469800000000     0          
C8       C      0.338200000000     0.227500000000     0.422000000000     0          
H1       H      0.315690000000     0.229600000000     0.412510000000     0          
C9       C      0.362000000000     0.225500000000     0.387700000000     0          
H2       H      0.355960000000     0.224900000000     0.354850000000     0          
C10      C      0.395800000000     0.224400000000     0.401300000000     0          
C11      C      0.403600000000     0.224400000000     0.448900000000     0          
H3       H      0.426140000000     0.223000000000     0.458440000000     0          
C12      C      0.379500000000     0.226300000000     0.482900000000     0          
H4       H      0.385440000000     0.227480000000     0.515720000000     0          
C13      C      0.422300000000     0.222100000000     0.363600000000     0          
C14      C      0.319800000000     0.164200000000     0.509500000000     0          
H5       H      0.304770000000     0.146340000000     0.520030000000     0          
H6       H      0.320580000000     0.164660000000     0.474510000000     0          
H7       H      0.342090000000     0.159830000000     0.522080000000     0          
C15      C      0.277800000000     0.168000000000     0.593200000000     0          
C16      C      0.250000000000     0.148800000000     0.584100000000     0          
H8       H      0.235030000000     0.155280000000     0.559640000000     0          
C17      C      0.244000000000     0.119800000000     0.611100000000     0          
H9       H      0.224080000000     0.107720000000     0.605250000000     0          
C18      C      0.264800000000     0.108100000000     0.644900000000     0          
C19      C      0.293600000000     0.127000000000     0.655000000000     0          
H10      H      0.308970000000     0.119890000000     0.678730000000     0          
C20      C      0.299000000000     0.157200000000     0.628700000000     0          
H11      H      0.317960000000     0.170350000000     0.635920000000     0          
C21      C      0.259400000000     0.076400000000     0.672600000000     0          
C22      C      0.252900000000     0.231200000000     0.628300000000     0          
H12      H      0.264570000000     0.240040000000     0.656340000000     0          
H13      H      0.234090000000     0.245770000000     0.620670000000     0          
H14      H      0.244830000000     0.208490000000     0.635290000000     0          
C23      C      0.280800000000     0.293500000000     0.590200000000     0          
C24      C      0.300800000000     0.301400000000     0.628300000000     0          
H15      H      0.318370000000     0.286710000000     0.637060000000     0          
C25      C      0.295500000000     0.330900000000     0.654300000000     0          
H16      H      0.309180000000     0.335960000000     0.681000000000     0          
C26      C      0.270700000000     0.352600000000     0.641400000000     0          
C27      C      0.250000000000     0.342700000000     0.603200000000     0          
H17      H      0.231850000000     0.356540000000     0.594450000000     0          
C28      C      0.255800000000     0.313200000000     0.578200000000     0          
H18      H      0.241670000000     0.307140000000     0.552390000000     0          
C29      C      0.265200000000     0.383300000000     0.669300000000     0          
C30      C      0.322000000000     0.290400000000     0.504300000000     0          
H19      H      0.314960000000     0.309710000000     0.523430000000     0          
H20      H      0.346280000000     0.289590000000     0.503170000000     0          
H21      H      0.313260000000     0.292530000000     0.471760000000     0          
C32      C      0.470200000000     0.046000000000     0.548000000000     0          
C33      C      0.470100000000     0.027500000000     0.591400000000     0          
C42      C      0.436700000000     0.054800000000     0.525300000000     0          
H26      H      0.419440000000     0.054460000000     0.549900000000     0          
H27      H      0.437920000000     0.077240000000     0.511050000000     0          
H28      H      0.431440000000     0.038320000000     0.500450000000     0          
C43      C      0.437800000000     0.019200000000     0.614900000000     0          
C44      C      0.421000000000     0.989700000000     0.603700000000     0          
H29      H      0.430600000000     0.973860000000     0.582390000000     0          
C45      C      0.390700000000     0.983700000000     0.623600000000     0          
H30      H      0.379270000000     0.963580000000     0.615940000000     0          
C46      C      0.376000000000     0.006700000000     0.655300000000     0          
C47      C      0.393500000000     0.035700000000     0.665800000000     0          
H31      H      0.384410000000     0.051720000000     0.687370000000     0          
C48      C      0.422700000000     0.041300000000     0.645900000000     0          
H32      H      0.433900000000     0.061590000000     0.653460000000     0          
C49      C      0.342300000000     0.000200000000     0.676300000000     0          
C52      C      0.530100000000     0.407000000000     0.960800000000     0          
C53      C      0.529500000000     0.426200000000     0.920300000000     0          
C62      C      0.562100000000     0.394000000000     0.982400000000     0          
H37      H      0.580060000000     0.396080000000     0.958970000000     0          
H38      H      0.567610000000     0.407150000000     0.010950000000     0          
H39      H      0.559430000000     0.370350000000     0.991280000000     0          
C63      C      0.562200000000     0.434400000000     0.896700000000     0          
C64      C      0.580500000000     0.462300000000     0.909600000000     0          
H40      H      0.572560000000     0.476060000000     0.934960000000     0          
C65      C      0.610400000000     0.471200000000     0.886700000000     0          
H41      H      0.621600000000     0.491550000000     0.893720000000     0          
C66      C      0.622700000000     0.448000000000     0.852600000000     0          
C67      C      0.604100000000     0.421300000000     0.839700000000     0          
H42      H      0.611530000000     0.406760000000     0.814940000000     0          
C68      C      0.574700000000     0.415100000000     0.862100000000     0          
H43      H      0.562360000000     0.395940000000     0.852530000000     0          
C69      C      0.655000000000     0.455900000000     0.829500000000     0          
H44?     H      0.522890000000     0.462540000000     0.845720000000     0          
H45?     H      0.488970000000     0.445240000000     0.829240000000     0          
H46?     H      0.488150000000     0.478620000000     0.861050000000     0          
H47?     H      0.522890000000     0.997610000000     0.672910000000     0          
H48?     H      0.488900000000     0.016080000000     0.686170000000     0          
H49?     H      0.488210000000     0.980210000000     0.660410000000     0          
Zr6      Zr     0.719520000000     0.050420000000     0.312640000000     0          
Zr7      Zr     0.784930000000     0.990590000000     0.313640000000     0          
O1       O      0.530500000000     0.809000000000     0.792100000000     0          
O2       O      0.532200000000     0.745600000000     0.706200000000     0          
O7       O      0.731550000000     0.996760000000     0.321400000000     0          
O10      O      0.770020000000     0.041000000000     0.305500000000     0          
O13      O      0.587010000000     0.778100000000     0.820700000000     0          
O14      O      0.548140000000     0.777000000000     0.876800000000     0          
O16      O      0.720000000000     0.047200000000     0.390900000000     0          
O17      O      0.782100000000     0.991600000000     0.391800000000     0          
O19      O      0.718350000000     0.931020000000     0.202000000000     0          
O20      O      0.765820000000     0.938900000000     0.162700000000     0          
O21      O      0.760220000000     0.598420000000     0.158800000000     0          
O22      O      0.714170000000     0.609610000000     0.201000000000     0          
O25      O      0.669010000000     0.976510000000     0.203000000000     0          
O26      O      0.671740000000     0.027040000000     0.165200000000     0          
O29      O      0.335660000000     0.564820000000     0.298200000000     0          
O30      O      0.330250000000     0.517500000000     0.340400000000     0          
C1       C      0.680200000000     0.772000000000     0.008500000000     0          
C2       C      0.692400000000     0.802500000000     0.027900000000     0          
C3       C      0.713500000000     0.800600000000     0.066900000000     0          
C4       C      0.723900000000     0.770000000000     0.086600000000     0          
C5       C      0.712000000000     0.740000000000     0.066600000000     0          
C6       C      0.691000000000     0.741500000000     0.026700000000     0          
C7       C      0.654400000000     0.773500000000     0.969800000000     0          
C8       C      0.661800000000     0.772500000000     0.922000000000     0          
H1       H      0.684310000000     0.770400000000     0.912510000000     0          
C9       C      0.638000000000     0.774500000000     0.887700000000     0          
H2       H      0.644040000000     0.775100000000     0.854850000000     0          
C10      C      0.604200000000     0.775600000000     0.901300000000     0          
C11      C      0.596400000000     0.775600000000     0.948900000000     0          
H3       H      0.573860000000     0.777000000000     0.958440000000     0          
C12      C      0.620500000000     0.773700000000     0.982900000000     0          
H4       H      0.614560000000     0.772520000000     0.015720000000     0          
C13      C      0.577700000000     0.777900000000     0.863600000000     0          
C14      C      0.680200000000     0.835800000000     0.009500000000     0          
H5       H      0.695230000000     0.853660000000     0.020030000000     0          
H6       H      0.679420000000     0.835340000000     0.974510000000     0          
H7       H      0.657910000000     0.840170000000     0.022080000000     0          
C15      C      0.722200000000     0.832000000000     0.093200000000     0          
C16      C      0.750000000000     0.851200000000     0.084100000000     0          
H8       H      0.764970000000     0.844720000000     0.059640000000     0          
C17      C      0.756000000000     0.880200000000     0.111100000000     0          
H9       H      0.775920000000     0.892280000000     0.105250000000     0          
C18      C      0.735200000000     0.891900000000     0.144900000000     0          
C19      C      0.706400000000     0.873000000000     0.155000000000     0          
H10      H      0.691030000000     0.880110000000     0.178730000000     0          
C20      C      0.701000000000     0.842800000000     0.128700000000     0          
H11      H      0.682040000000     0.829650000000     0.135920000000     0          
C21      C      0.740600000000     0.923600000000     0.172600000000     0          
C22      C      0.747100000000     0.768800000000     0.128300000000     0          
H12      H      0.735430000000     0.759960000000     0.156340000000     0          
H13      H      0.765910000000     0.754230000000     0.120670000000     0          
H14      H      0.755170000000     0.791510000000     0.135290000000     0          
C23      C      0.719200000000     0.706500000000     0.090200000000     0          
C24      C      0.699200000000     0.698600000000     0.128300000000     0          
H15      H      0.681630000000     0.713290000000     0.137060000000     0          
C25      C      0.704500000000     0.669100000000     0.154300000000     0          
H16      H      0.690820000000     0.664040000000     0.181000000000     0          
C26      C      0.729300000000     0.647400000000     0.141400000000     0          
C27      C      0.750000000000     0.657300000000     0.103200000000     0          
H17      H      0.768150000000     0.643460000000     0.094450000000     0          
C28      C      0.744200000000     0.686800000000     0.078200000000     0          
H18      H      0.758330000000     0.692860000000     0.052390000000     0          
C29      C      0.734800000000     0.616700000000     0.169300000000     0          
C30      C      0.678000000000     0.709600000000     0.004300000000     0          
H19      H      0.685040000000     0.690290000000     0.023430000000     0          
H20      H      0.653720000000     0.710410000000     0.003170000000     0          
H21      H      0.686740000000     0.707470000000     0.971760000000     0          
C32      C      0.529800000000     0.954000000000     0.048000000000     0          
C33      C      0.529900000000     0.972500000000     0.091400000000     0          
C42      C      0.563300000000     0.945200000000     0.025300000000     0          
H26      H      0.580560000000     0.945540000000     0.049900000000     0          
H27      H      0.562080000000     0.922760000000     0.011050000000     0          
H28      H      0.568560000000     0.961680000000     0.000450000000     0          
C43      C      0.562200000000     0.980800000000     0.114900000000     0          
C44      C      0.579000000000     0.010300000000     0.103700000000     0          
H29      H      0.569400000000     0.026140000000     0.082390000000     0          
C45      C      0.609300000000     0.016300000000     0.123600000000     0          
H30      H      0.620730000000     0.036420000000     0.115940000000     0          
C46      C      0.624000000000     0.993300000000     0.155300000000     0          
C47      C      0.606500000000     0.964300000000     0.165800000000     0          
H31      H      0.615590000000     0.948280000000     0.187370000000     0          
C48      C      0.577300000000     0.958700000000     0.145900000000     0          
H32      H      0.566100000000     0.938410000000     0.153460000000     0          
C49      C      0.657700000000     0.999800000000     0.176300000000     0          
C52      C      0.469900000000     0.593000000000     0.460800000000     0          
C53      C      0.470500000000     0.573800000000     0.420300000000     0          
C62      C      0.437900000000     0.606000000000     0.482400000000     0          
H37      H      0.419940000000     0.603920000000     0.458970000000     0          
H38      H      0.432390000000     0.592850000000     0.510950000000     0          
H39      H      0.440570000000     0.629650000000     0.491280000000     0          
C63      C      0.437800000000     0.565600000000     0.396700000000     0          
C64      C      0.419500000000     0.537700000000     0.409600000000     0          
H40      H      0.427440000000     0.523940000000     0.434960000000     0          
C65      C      0.389600000000     0.528800000000     0.386700000000     0          
H41      H      0.378400000000     0.508450000000     0.393720000000     0          
C66      C      0.377300000000     0.552000000000     0.352600000000     0          
C67      C      0.395900000000     0.578700000000     0.339700000000     0          
H42      H      0.388470000000     0.593240000000     0.314940000000     0          
C68      C      0.425300000000     0.584900000000     0.362100000000     0          
H43      H      0.437640000000     0.604060000000     0.352530000000     0          
C69      C      0.345000000000     0.544100000000     0.329500000000     0          
H44?     H      0.477110000000     0.537460000000     0.345720000000     0          
H45?     H      0.511030000000     0.554760000000     0.329240000000     0          
H46?     H      0.511850000000     0.521380000000     0.361050000000     0          
H47?     H      0.477110000000     0.002390000000     0.172910000000     0          
H48?     H      0.511100000000     0.983920000000     0.186170000000     0          
H49?     H      0.511790000000     0.019790000000     0.160410000000     0          
Zr6      Zr     0.280480000000     0.050420000000     0.187360000000     0          
Zr7      Zr     0.215070000000     0.990590000000     0.186360000000     0          
O1       O      0.469500000000     0.809000000000     0.707900000000     0          
O2       O      0.467800000000     0.745600000000     0.793800000000     0          
O7       O      0.268450000000     0.996760000000     0.178600000000     0          
O10      O      0.229980000000     0.041000000000     0.194500000000     0          
O13      O      0.412990000000     0.778100000000     0.679300000000     0          
O14      O      0.451860000000     0.777000000000     0.623200000000     0          
O16      O      0.280000000000     0.047200000000     0.109100000000     0          
O17      O      0.217900000000     0.991600000000     0.108200000000     0          
O19      O      0.281650000000     0.931020000000     0.298000000000     0          
O20      O      0.234180000000     0.938900000000     0.337300000000     0          
O21      O      0.239780000000     0.598420000000     0.341200000000     0          
O22      O      0.285830000000     0.609610000000     0.299000000000     0          
O25      O      0.330990000000     0.976510000000     0.297000000000     0          
O26      O      0.328260000000     0.027040000000     0.334800000000     0          
O29      O      0.664340000000     0.564820000000     0.201800000000     0          
O30      O      0.669750000000     0.517500000000     0.159600000000     0          
C1       C      0.319800000000     0.772000000000     0.491500000000     0          
C2       C      0.307600000000     0.802500000000     0.472100000000     0          
C3       C      0.286500000000     0.800600000000     0.433100000000     0          
C4       C      0.276100000000     0.770000000000     0.413400000000     0          
C5       C      0.288000000000     0.740000000000     0.433400000000     0          
C6       C      0.309000000000     0.741500000000     0.473300000000     0          
C7       C      0.345600000000     0.773500000000     0.530200000000     0          
C8       C      0.338200000000     0.772500000000     0.578000000000     0          
H1       H      0.315690000000     0.770400000000     0.587490000000     0          
C9       C      0.362000000000     0.774500000000     0.612300000000     0          
H2       H      0.355960000000     0.775100000000     0.645150000000     0          
C10      C      0.395800000000     0.775600000000     0.598700000000     0          
C11      C      0.403600000000     0.775600000000     0.551100000000     0          
H3       H      0.426140000000     0.777000000000     0.541560000000     0          
C12      C      0.379500000000     0.773700000000     0.517100000000     0          
H4       H      0.385440000000     0.772520000000     0.484280000000     0          
C13      C      0.422300000000     0.777900000000     0.636400000000     0          
C14      C      0.319800000000     0.835800000000     0.490500000000     0          
H5       H      0.304770000000     0.853660000000     0.479970000000     0          
H6       H      0.320580000000     0.835340000000     0.525490000000     0          
H7       H      0.342090000000     0.840170000000     0.477920000000     0          
C15      C      0.277800000000     0.832000000000     0.406800000000     0          
C16      C      0.250000000000     0.851200000000     0.415900000000     0          
H8       H      0.235030000000     0.844720000000     0.440360000000     0          
C17      C      0.244000000000     0.880200000000     0.388900000000     0          
H9       H      0.224080000000     0.892280000000     0.394750000000     0          
C18      C      0.264800000000     0.891900000000     0.355100000000     0          
C19      C      0.293600000000     0.873000000000     0.345000000000     0          
H10      H      0.308970000000     0.880110000000     0.321270000000     0          
C20      C      0.299000000000     0.842800000000     0.371300000000     0          
H11      H      0.317960000000     0.829650000000     0.364080000000     0          
C21      C      0.259400000000     0.923600000000     0.327400000000     0          
C22      C      0.252900000000     0.768800000000     0.371700000000     0          
H12      H      0.264570000000     0.759960000000     0.343660000000     0          
H13      H      0.234090000000     0.754230000000     0.379330000000     0          
H14      H      0.244830000000     0.791510000000     0.364710000000     0          
C23      C      0.280800000000     0.706500000000     0.409800000000     0          
C24      C      0.300800000000     0.698600000000     0.371700000000     0          
H15      H      0.318370000000     0.713290000000     0.362940000000     0          
C25      C      0.295500000000     0.669100000000     0.345700000000     0          
H16      H      0.309180000000     0.664040000000     0.319000000000     0          
C26      C      0.270700000000     0.647400000000     0.358600000000     0          
C27      C      0.250000000000     0.657300000000     0.396800000000     0          
H17      H      0.231850000000     0.643460000000     0.405550000000     0          
C28      C      0.255800000000     0.686800000000     0.421800000000     0          
H18      H      0.241670000000     0.692860000000     0.447610000000     0          
C29      C      0.265200000000     0.616700000000     0.330700000000     0          
C30      C      0.322000000000     0.709600000000     0.495700000000     0          
H19      H      0.314960000000     0.690290000000     0.476570000000     0          
H20      H      0.346280000000     0.710410000000     0.496830000000     0          
H21      H      0.313260000000     0.707470000000     0.528240000000     0          
C32      C      0.470200000000     0.954000000000     0.452000000000     0          
C33      C      0.470100000000     0.972500000000     0.408600000000     0          
C42      C      0.436700000000     0.945200000000     0.474700000000     0          
H26      H      0.419440000000     0.945540000000     0.450100000000     0          
H27      H      0.437920000000     0.922760000000     0.488950000000     0          
H28      H      0.431440000000     0.961680000000     0.499550000000     0          
C43      C      0.437800000000     0.980800000000     0.385100000000     0          
C44      C      0.421000000000     0.010300000000     0.396300000000     0          
H29      H      0.430600000000     0.026140000000     0.417610000000     0          
C45      C      0.390700000000     0.016300000000     0.376400000000     0          
H30      H      0.379270000000     0.036420000000     0.384060000000     0          
C46      C      0.376000000000     0.993300000000     0.344700000000     0          
C47      C      0.393500000000     0.964300000000     0.334200000000     0          
H31      H      0.384410000000     0.948280000000     0.312630000000     0          
C48      C      0.422700000000     0.958700000000     0.354100000000     0          
H32      H      0.433900000000     0.938410000000     0.346540000000     0          
C49      C      0.342300000000     0.999800000000     0.323700000000     0          
C52      C      0.530100000000     0.593000000000     0.039200000000     0          
C53      C      0.529500000000     0.573800000000     0.079700000000     0          
C62      C      0.562100000000     0.606000000000     0.017600000000     0          
H37      H      0.580060000000     0.603920000000     0.041030000000     0          
H38      H      0.567610000000     0.592850000000     0.989050000000     0          
H39      H      0.559430000000     0.629650000000     0.008720000000     0          
C63      C      0.562200000000     0.565600000000     0.103300000000     0          
C64      C      0.580500000000     0.537700000000     0.090400000000     0          
H40      H      0.572560000000     0.523940000000     0.065040000000     0          
C65      C      0.610400000000     0.528800000000     0.113300000000     0          
H41      H      0.621600000000     0.508450000000     0.106280000000     0          
C66      C      0.622700000000     0.552000000000     0.147400000000     0          
C67      C      0.604100000000     0.578700000000     0.160300000000     0          
H42      H      0.611530000000     0.593240000000     0.185060000000     0          
C68      C      0.574700000000     0.584900000000     0.137900000000     0          
H43      H      0.562360000000     0.604060000000     0.147470000000     0          
C69      C      0.655000000000     0.544100000000     0.170500000000     0          
H44?     H      0.522890000000     0.537460000000     0.154280000000     0          
H45?     H      0.488970000000     0.554760000000     0.170760000000     0          
H46?     H      0.488150000000     0.521380000000     0.138950000000     0          
H47?     H      0.522890000000     0.002390000000     0.327090000000     0          
H48?     H      0.488900000000     0.983920000000     0.313830000000     0          
H49?     H      0.488210000000     0.019790000000     0.339590000000     0          
Zr6      Zr     0.719520000000     0.949580000000     0.687360000000     0          
Zr7      Zr     0.784930000000     0.009410000000     0.686360000000     0          
O1       O      0.530500000000     0.191000000000     0.207900000000     0          
O2       O      0.532200000000     0.254400000000     0.293800000000     0          
O7       O      0.731550000000     0.003240000000     0.678600000000     0          
O10      O      0.770020000000     0.959000000000     0.694500000000     0          
O13      O      0.587010000000     0.221900000000     0.179300000000     0          
O14      O      0.548140000000     0.223000000000     0.123200000000     0          
O16      O      0.720000000000     0.952800000000     0.609100000000     0          
O17      O      0.782100000000     0.008400000000     0.608200000000     0          
O19      O      0.718350000000     0.068980000000     0.798000000000     0          
O20      O      0.765820000000     0.061100000000     0.837300000000     0          
O21      O      0.760220000000     0.401580000000     0.841200000000     0          
O22      O      0.714170000000     0.390390000000     0.799000000000     0          
O25      O      0.669010000000     0.023490000000     0.797000000000     0          
O26      O      0.671740000000     0.972960000000     0.834800000000     0          
O29      O      0.335660000000     0.435180000000     0.701800000000     0          
O30      O      0.330250000000     0.482500000000     0.659600000000     0          
C1       C      0.680200000000     0.228000000000     0.991500000000     0          
C2       C      0.692400000000     0.197500000000     0.972100000000     0          
C3       C      0.713500000000     0.199400000000     0.933100000000     0          
C4       C      0.723900000000     0.230000000000     0.913400000000     0          
C5       C      0.712000000000     0.260000000000     0.933400000000     0          
C6       C      0.691000000000     0.258500000000     0.973300000000     0          
C7       C      0.654400000000     0.226500000000     0.030200000000     0          
C8       C      0.661800000000     0.227500000000     0.078000000000     0          
H1       H      0.684310000000     0.229600000000     0.087490000000     0          
C9       C      0.638000000000     0.225500000000     0.112300000000     0          
H2       H      0.644040000000     0.224900000000     0.145150000000     0          
C10      C      0.604200000000     0.224400000000     0.098700000000     0          
C11      C      0.596400000000     0.224400000000     0.051100000000     0          
H3       H      0.573860000000     0.223000000000     0.041560000000     0          
C12      C      0.620500000000     0.226300000000     0.017100000000     0          
H4       H      0.614560000000     0.227480000000     0.984280000000     0          
C13      C      0.577700000000     0.222100000000     0.136400000000     0          
C14      C      0.680200000000     0.164200000000     0.990500000000     0          
H5       H      0.695230000000     0.146340000000     0.979970000000     0          
H6       H      0.679420000000     0.164660000000     0.025490000000     0          
H7       H      0.657910000000     0.159830000000     0.977920000000     0          
C15      C      0.722200000000     0.168000000000     0.906800000000     0          
C16      C      0.750000000000     0.148800000000     0.915900000000     0          
H8       H      0.764970000000     0.155280000000     0.940360000000     0          
C17      C      0.756000000000     0.119800000000     0.888900000000     0          
H9       H      0.775920000000     0.107720000000     0.894750000000     0          
C18      C      0.735200000000     0.108100000000     0.855100000000     0          
C19      C      0.706400000000     0.127000000000     0.845000000000     0          
H10      H      0.691030000000     0.119890000000     0.821270000000     0          
C20      C      0.701000000000     0.157200000000     0.871300000000     0          
H11      H      0.682040000000     0.170350000000     0.864080000000     0          
C21      C      0.740600000000     0.076400000000     0.827400000000     0          
C22      C      0.747100000000     0.231200000000     0.871700000000     0          
H12      H      0.735430000000     0.240040000000     0.843660000000     0          
H13      H      0.765910000000     0.245770000000     0.879330000000     0          
H14      H      0.755170000000     0.208490000000     0.864710000000     0          
C23      C      0.719200000000     0.293500000000     0.909800000000     0          
C24      C      0.699200000000     0.301400000000     0.871700000000     0          
H15      H      0.681630000000     0.286710000000     0.862940000000     0          
C25      C      0.704500000000     0.330900000000     0.845700000000     0          
H16      H      0.690820000000     0.335960000000     0.819000000000     0          
C26      C      0.729300000000     0.352600000000     0.858600000000     0          
C27      C      0.750000000000     0.342700000000     0.896800000000     0          
H17      H      0.768150000000     0.356540000000     0.905550000000     0          
C28      C      0.744200000000     0.313200000000     0.921800000000     0          
H18      H      0.758330000000     0.307140000000     0.947610000000     0          
C29      C      0.734800000000     0.383300000000     0.830700000000     0          
C30      C      0.678000000000     0.290400000000     0.995700000000     0          
H19      H      0.685040000000     0.309710000000     0.976570000000     0          
H20      H      0.653720000000     0.289590000000     0.996830000000     0          
H21      H      0.686740000000     0.292530000000     0.028240000000     0          
C32      C      0.529800000000     0.046000000000     0.952000000000     0          
C33      C      0.529900000000     0.027500000000     0.908600000000     0          
C42      C      0.563300000000     0.054800000000     0.974700000000     0          
H26      H      0.580560000000     0.054460000000     0.950100000000     0          
H27      H      0.562080000000     0.077240000000     0.988950000000     0          
H28      H      0.568560000000     0.038320000000     0.999550000000     0          
C43      C      0.562200000000     0.019200000000     0.885100000000     0          
C44      C      0.579000000000     0.989700000000     0.896300000000     0          
H29      H      0.569400000000     0.973860000000     0.917610000000     0          
C45      C      0.609300000000     0.983700000000     0.876400000000     0          
H30      H      0.620730000000     0.963580000000     0.884060000000     0          
C46      C      0.624000000000     0.006700000000     0.844700000000     0          
C47      C      0.606500000000     0.035700000000     0.834200000000     0          
H31      H      0.615590000000     0.051720000000     0.812630000000     0          
C48      C      0.577300000000     0.041300000000     0.854100000000     0          
H32      H      0.566100000000     0.061590000000     0.846540000000     0          
C49      C      0.657700000000     0.000200000000     0.823700000000     0          
C52      C      0.469900000000     0.407000000000     0.539200000000     0          
C53      C      0.470500000000     0.426200000000     0.579700000000     0          
C62      C      0.437900000000     0.394000000000     0.517600000000     0          
H37      H      0.419940000000     0.396080000000     0.541030000000     0          
H38      H      0.432390000000     0.407150000000     0.489050000000     0          
H39      H      0.440570000000     0.370350000000     0.508720000000     0          
C63      C      0.437800000000     0.434400000000     0.603300000000     0          
C64      C      0.419500000000     0.462300000000     0.590400000000     0          
H40      H      0.427440000000     0.476060000000     0.565040000000     0          
C65      C      0.389600000000     0.471200000000     0.613300000000     0          
H41      H      0.378400000000     0.491550000000     0.606280000000     0          
C66      C      0.377300000000     0.448000000000     0.647400000000     0          
C67      C      0.395900000000     0.421300000000     0.660300000000     0          
H42      H      0.388470000000     0.406760000000     0.685060000000     0          
C68      C      0.425300000000     0.415100000000     0.637900000000     0          
H43      H      0.437640000000     0.395940000000     0.647470000000     0          
C69      C      0.345000000000     0.455900000000     0.670500000000     0          
H44?     H      0.477110000000     0.462540000000     0.654280000000     0          
H45?     H      0.511030000000     0.445240000000     0.670760000000     0          
H46?     H      0.511850000000     0.478620000000     0.638950000000     0          
H47?     H      0.477110000000     0.997610000000     0.827090000000     0          
H48?     H      0.511100000000     0.016080000000     0.813830000000     0          
H49?     H      0.511790000000     0.980210000000     0.839590000000     0          
Zr6      Zr     0.219520000000     0.550420000000     0.187360000000     0          
Zr7      Zr     0.284930000000     0.490590000000     0.186360000000     0          
O1       O      0.030500000000     0.309000000000     0.707900000000     0          
O2       O      0.032200000000     0.245600000000     0.793800000000     0          
O7       O      0.231550000000     0.496760000000     0.178600000000     0          
O10      O      0.270020000000     0.541000000000     0.194500000000     0          
O13      O      0.087010000000     0.278100000000     0.679300000000     0          
O14      O      0.048140000000     0.277000000000     0.623200000000     0          
O16      O      0.220000000000     0.547200000000     0.109100000000     0          
O17      O      0.282100000000     0.491600000000     0.108200000000     0          
O19      O      0.218350000000     0.431020000000     0.298000000000     0          
O20      O      0.265820000000     0.438900000000     0.337300000000     0          
O21      O      0.260220000000     0.098420000000     0.341200000000     0          
O22      O      0.214170000000     0.109610000000     0.299000000000     0          
O25      O      0.169010000000     0.476510000000     0.297000000000     0          
O26      O      0.171740000000     0.527040000000     0.334800000000     0          
O29      O      0.835660000000     0.064820000000     0.201800000000     0          
O30      O      0.830250000000     0.017500000000     0.159600000000     0          
C1       C      0.180200000000     0.272000000000     0.491500000000     0          
C2       C      0.192400000000     0.302500000000     0.472100000000     0          
C3       C      0.213500000000     0.300600000000     0.433100000000     0          
C4       C      0.223900000000     0.270000000000     0.413400000000     0          
C5       C      0.212000000000     0.240000000000     0.433400000000     0          
C6       C      0.191000000000     0.241500000000     0.473300000000     0          
C7       C      0.154400000000     0.273500000000     0.530200000000     0          
C8       C      0.161800000000     0.272500000000     0.578000000000     0          
H1       H      0.184310000000     0.270400000000     0.587490000000     0          
C9       C      0.138000000000     0.274500000000     0.612300000000     0          
H2       H      0.144040000000     0.275100000000     0.645150000000     0          
C10      C      0.104200000000     0.275600000000     0.598700000000     0          
C11      C      0.096400000000     0.275600000000     0.551100000000     0          
H3       H      0.073860000000     0.277000000000     0.541560000000     0          
C12      C      0.120500000000     0.273700000000     0.517100000000     0          
H4       H      0.114560000000     0.272520000000     0.484280000000     0          
C13      C      0.077700000000     0.277900000000     0.636400000000     0          
C14      C      0.180200000000     0.335800000000     0.490500000000     0          
H5       H      0.195230000000     0.353660000000     0.479970000000     0          
H6       H      0.179420000000     0.335340000000     0.525490000000     0          
H7       H      0.157910000000     0.340170000000     0.477920000000     0          
C15      C      0.222200000000     0.332000000000     0.406800000000     0          
C16      C      0.250000000000     0.351200000000     0.415900000000     0          
H8       H      0.264970000000     0.344720000000     0.440360000000     0          
C17      C      0.256000000000     0.380200000000     0.388900000000     0          
H9       H      0.275920000000     0.392280000000     0.394750000000     0          
C18      C      0.235200000000     0.391900000000     0.355100000000     0          
C19      C      0.206400000000     0.373000000000     0.345000000000     0          
H10      H      0.191030000000     0.380110000000     0.321270000000     0          
C20      C      0.201000000000     0.342800000000     0.371300000000     0          
H11      H      0.182040000000     0.329650000000     0.364080000000     0          
C21      C      0.240600000000     0.423600000000     0.327400000000     0          
C22      C      0.247100000000     0.268800000000     0.371700000000     0          
H12      H      0.235430000000     0.259960000000     0.343660000000     0          
H13      H      0.265910000000     0.254230000000     0.379330000000     0          
H14      H      0.255170000000     0.291510000000     0.364710000000     0          
C23      C      0.219200000000     0.206500000000     0.409800000000     0          
C24      C      0.199200000000     0.198600000000     0.371700000000     0          
H15      H      0.181630000000     0.213290000000     0.362940000000     0          
C25      C      0.204500000000     0.169100000000     0.345700000000     0          
H16      H      0.190820000000     0.164040000000     0.319000000000     0          
C26      C      0.229300000000     0.147400000000     0.358600000000     0          
C27      C      0.250000000000     0.157300000000     0.396800000000     0          
H17      H      0.268150000000     0.143460000000     0.405550000000     0          
C28      C      0.244200000000     0.186800000000     0.421800000000     0          
H18      H      0.258330000000     0.192860000000     0.447610000000     0          
C29      C      0.234800000000     0.116700000000     0.330700000000     0          
C30      C      0.178000000000     0.209600000000     0.495700000000     0          
H19      H      0.185040000000     0.190290000000     0.476570000000     0          
H20      H      0.153720000000     0.210410000000     0.496830000000     0          
H21      H      0.186740000000     0.207470000000     0.528240000000     0          
C32      C      0.029800000000     0.454000000000     0.452000000000     0          
C33      C      0.029900000000     0.472500000000     0.408600000000     0          
C42      C      0.063300000000     0.445200000000     0.474700000000     0          
H26      H      0.080560000000     0.445540000000     0.450100000000     0          
H27      H      0.062080000000     0.422760000000     0.488950000000     0          
H28      H      0.068560000000     0.461680000000     0.499550000000     0          
C43      C      0.062200000000     0.480800000000     0.385100000000     0          
C44      C      0.079000000000     0.510300000000     0.396300000000     0          
H29      H      0.069400000000     0.526140000000     0.417610000000     0          
C45      C      0.109300000000     0.516300000000     0.376400000000     0          
H30      H      0.120730000000     0.536420000000     0.384060000000     0          
C46      C      0.124000000000     0.493300000000     0.344700000000     0          
C47      C      0.106500000000     0.464300000000     0.334200000000     0          
H31      H      0.115590000000     0.448280000000     0.312630000000     0          
C48      C      0.077300000000     0.458700000000     0.354100000000     0          
H32      H      0.066100000000     0.438410000000     0.346540000000     0          
C49      C      0.157700000000     0.499800000000     0.323700000000     0          
C52      C      0.969900000000     0.093000000000     0.039200000000     0          
C53      C      0.970500000000     0.073800000000     0.079700000000     0          
C62      C      0.937900000000     0.106000000000     0.017600000000     0          
H37      H      0.919940000000     0.103920000000     0.041030000000     0          
H38      H      0.932390000000     0.092850000000     0.989050000000     0          
H39      H      0.940570000000     0.129650000000     0.008720000000     0          
C63      C      0.937800000000     0.065600000000     0.103300000000     0          
C64      C      0.919500000000     0.037700000000     0.090400000000     0          
H40      H      0.927440000000     0.023940000000     0.065040000000     0          
C65      C      0.889600000000     0.028800000000     0.113300000000     0          
H41      H      0.878400000000     0.008450000000     0.106280000000     0          
C66      C      0.877300000000     0.052000000000     0.147400000000     0          
C67      C      0.895900000000     0.078700000000     0.160300000000     0          
H42      H      0.888470000000     0.093240000000     0.185060000000     0          
C68      C      0.925300000000     0.084900000000     0.137900000000     0          
H43      H      0.937640000000     0.104060000000     0.147470000000     0          
C69      C      0.845000000000     0.044100000000     0.170500000000     0          
H44?     H      0.977110000000     0.037460000000     0.154280000000     0          
H45?     H      0.011030000000     0.054760000000     0.170760000000     0          
H46?     H      0.011850000000     0.021380000000     0.138950000000     0          
H47?     H      0.977110000000     0.502390000000     0.327090000000     0          
H48?     H      0.011100000000     0.483920000000     0.313830000000     0          
H49?     H      0.011790000000     0.519790000000     0.339590000000     0          
Zr1      Zr     0.061780000000     0.277180000000     0.750000000000     0          
Zr2      Zr     0.000000000000     0.340600000000     0.750000000000     0          
Zr4      Zr     0.000000000000     0.214090000000     0.750000000000     0          
Zr3      Zr     0.000000000000     0.277210000000     0.837900000000     0          
O23      O      0.000000000000     0.364600000000     0.674400000000     0          
O24      O      0.000000000000     0.323300000000     0.621500000000     0          
O27      O      0.000000000000     0.230200000000     0.877700000000     0          
O28      O      0.000000000000     0.189700000000     0.823700000000     0          
C31      C      0.000000000000     0.445200000000     0.472300000000     0          
C34      C      0.000000000000     0.481400000000     0.385200000000     0          
C35      C      0.000000000000     0.422200000000     0.514300000000     0          
C36      C      0.000000000000     0.388500000000     0.509400000000     0          
H22      H      0.000000000000     0.379900000000     0.477700000000     0          
C37      C      0.000000000000     0.365400000000     0.546100000000     0          
H23      H      0.000000000000     0.341900000000     0.540100000000     0          
C38      C      0.000000000000     0.378400000000     0.592600000000     0          
C39      C      0.000000000000     0.413400000000     0.599300000000     0          
H24      H      0.000000000000     0.422020000000     0.630990000000     0          
C40      C      0.000000000000     0.435000000000     0.562500000000     0          
H25      H      0.000000000000     0.458490000000     0.568090000000     0          
C41      C      0.000000000000     0.354100000000     0.633800000000     0          
C50      C      0.000000000000     0.498300000000     0.337300000000     0          
C51      C      0.000000000000     0.103600000000     0.018000000000     0          
C54      C      0.000000000000     0.063500000000     0.100000000000     0          
C55      C      0.000000000000     0.126800000000     0.977200000000     0          
C56      C      0.000000000000     0.162400000000     0.987100000000     0          
H33      H      0.000000000000     0.169350000000     0.019560000000     0          
C57      C      0.000000000000     0.187700000000     0.950900000000     0          
H34      H      0.000000000000     0.211040000000     0.958040000000     0          
C58      C      0.000000000000     0.175400000000     0.904300000000     0          
C59      C      0.000000000000     0.140400000000     0.893800000000     0          
H35      H      0.000000000000     0.132880000000     0.861560000000     0          
C60      C      0.000000000000     0.117900000000     0.930600000000     0          
H36      H      0.000000000000     0.094640000000     0.923030000000     0          
C61      C      0.000000000000     0.200400000000     0.865100000000     0          
C70      C      0.000000000000     0.042400000000     0.145000000000     0          
Zr5      Zr     0.212120000000     0.474350000000     0.250000000000     0          
Zr8      Zr     0.292730000000     0.566280000000     0.250000000000     0          
O8       O      0.206800000000     0.527100000000     0.250000000000     0          
O9       O      0.263100000000     0.474100000000     0.250000000000     0          
O11      O      0.239100000000     0.578400000000     0.250000000000     0          
O12      O      0.310500000000     0.511600000000     0.250000000000     0          
Zr6      Zr     0.780480000000     0.449580000000     0.687360000000     0          
Zr7      Zr     0.715070000000     0.509410000000     0.686360000000     0          
O1       O      0.969500000000     0.691000000000     0.207900000000     0          
O2       O      0.967800000000     0.754400000000     0.293800000000     0          
O7       O      0.768450000000     0.503240000000     0.678600000000     0          
O10      O      0.729980000000     0.459000000000     0.694500000000     0          
O13      O      0.912990000000     0.721900000000     0.179300000000     0          
O14      O      0.951860000000     0.723000000000     0.123200000000     0          
O16      O      0.780000000000     0.452800000000     0.609100000000     0          
O17      O      0.717900000000     0.508400000000     0.608200000000     0          
O19      O      0.781650000000     0.568980000000     0.798000000000     0          
O20      O      0.734180000000     0.561100000000     0.837300000000     0          
O21      O      0.739780000000     0.901580000000     0.841200000000     0          
O22      O      0.785830000000     0.890390000000     0.799000000000     0          
O25      O      0.830990000000     0.523490000000     0.797000000000     0          
O26      O      0.828260000000     0.472960000000     0.834800000000     0          
O29      O      0.164340000000     0.935180000000     0.701800000000     0          
O30      O      0.169750000000     0.982500000000     0.659600000000     0          
C1       C      0.819800000000     0.728000000000     0.991500000000     0          
C2       C      0.807600000000     0.697500000000     0.972100000000     0          
C3       C      0.786500000000     0.699400000000     0.933100000000     0          
C4       C      0.776100000000     0.730000000000     0.913400000000     0          
C5       C      0.788000000000     0.760000000000     0.933400000000     0          
C6       C      0.809000000000     0.758500000000     0.973300000000     0          
C7       C      0.845600000000     0.726500000000     0.030200000000     0          
C8       C      0.838200000000     0.727500000000     0.078000000000     0          
H1       H      0.815690000000     0.729600000000     0.087490000000     0          
C9       C      0.862000000000     0.725500000000     0.112300000000     0          
H2       H      0.855960000000     0.724900000000     0.145150000000     0          
C10      C      0.895800000000     0.724400000000     0.098700000000     0          
C11      C      0.903600000000     0.724400000000     0.051100000000     0          
H3       H      0.926140000000     0.723000000000     0.041560000000     0          
C12      C      0.879500000000     0.726300000000     0.017100000000     0          
H4       H      0.885440000000     0.727480000000     0.984280000000     0          
C13      C      0.922300000000     0.722100000000     0.136400000000     0          
C14      C      0.819800000000     0.664200000000     0.990500000000     0          
H5       H      0.804770000000     0.646340000000     0.979970000000     0          
H6       H      0.820580000000     0.664660000000     0.025490000000     0          
H7       H      0.842090000000     0.659830000000     0.977920000000     0          
C15      C      0.777800000000     0.668000000000     0.906800000000     0          
C16      C      0.750000000000     0.648800000000     0.915900000000     0          
H8       H      0.735030000000     0.655280000000     0.940360000000     0          
C17      C      0.744000000000     0.619800000000     0.888900000000     0          
H9       H      0.724080000000     0.607720000000     0.894750000000     0          
C18      C      0.764800000000     0.608100000000     0.855100000000     0          
C19      C      0.793600000000     0.627000000000     0.845000000000     0          
H10      H      0.808970000000     0.619890000000     0.821270000000     0          
C20      C      0.799000000000     0.657200000000     0.871300000000     0          
H11      H      0.817960000000     0.670350000000     0.864080000000     0          
C21      C      0.759400000000     0.576400000000     0.827400000000     0          
C22      C      0.752900000000     0.731200000000     0.871700000000     0          
H12      H      0.764570000000     0.740040000000     0.843660000000     0          
H13      H      0.734090000000     0.745770000000     0.879330000000     0          
H14      H      0.744830000000     0.708490000000     0.864710000000     0          
C23      C      0.780800000000     0.793500000000     0.909800000000     0          
C24      C      0.800800000000     0.801400000000     0.871700000000     0          
H15      H      0.818370000000     0.786710000000     0.862940000000     0          
C25      C      0.795500000000     0.830900000000     0.845700000000     0          
H16      H      0.809180000000     0.835960000000     0.819000000000     0          
C26      C      0.770700000000     0.852600000000     0.858600000000     0          
C27      C      0.750000000000     0.842700000000     0.896800000000     0          
H17      H      0.731850000000     0.856540000000     0.905550000000     0          
C28      C      0.755800000000     0.813200000000     0.921800000000     0          
H18      H      0.741670000000     0.807140000000     0.947610000000     0          
C29      C      0.765200000000     0.883300000000     0.830700000000     0          
C30      C      0.822000000000     0.790400000000     0.995700000000     0          
H19      H      0.814960000000     0.809710000000     0.976570000000     0          
H20      H      0.846280000000     0.789590000000     0.996830000000     0          
H21      H      0.813260000000     0.792530000000     0.028240000000     0          
C32      C      0.970200000000     0.546000000000     0.952000000000     0          
C33      C      0.970100000000     0.527500000000     0.908600000000     0          
C42      C      0.936700000000     0.554800000000     0.974700000000     0          
H26      H      0.919440000000     0.554460000000     0.950100000000     0          
H27      H      0.937920000000     0.577240000000     0.988950000000     0          
H28      H      0.931440000000     0.538320000000     0.999550000000     0          
C43      C      0.937800000000     0.519200000000     0.885100000000     0          
C44      C      0.921000000000     0.489700000000     0.896300000000     0          
H29      H      0.930600000000     0.473860000000     0.917610000000     0          
C45      C      0.890700000000     0.483700000000     0.876400000000     0          
H30      H      0.879270000000     0.463580000000     0.884060000000     0          
C46      C      0.876000000000     0.506700000000     0.844700000000     0          
C47      C      0.893500000000     0.535700000000     0.834200000000     0          
H31      H      0.884410000000     0.551720000000     0.812630000000     0          
C48      C      0.922700000000     0.541300000000     0.854100000000     0          
H32      H      0.933900000000     0.561590000000     0.846540000000     0          
C49      C      0.842300000000     0.500200000000     0.823700000000     0          
C52      C      0.030100000000     0.907000000000     0.539200000000     0          
C53      C      0.029500000000     0.926200000000     0.579700000000     0          
C62      C      0.062100000000     0.894000000000     0.517600000000     0          
H37      H      0.080060000000     0.896080000000     0.541030000000     0          
H38      H      0.067610000000     0.907150000000     0.489050000000     0          
H39      H      0.059430000000     0.870350000000     0.508720000000     0          
C63      C      0.062200000000     0.934400000000     0.603300000000     0          
C64      C      0.080500000000     0.962300000000     0.590400000000     0          
H40      H      0.072560000000     0.976060000000     0.565040000000     0          
C65      C      0.110400000000     0.971200000000     0.613300000000     0          
H41      H      0.121600000000     0.991550000000     0.606280000000     0          
C66      C      0.122700000000     0.948000000000     0.647400000000     0          
C67      C      0.104100000000     0.921300000000     0.660300000000     0          
H42      H      0.111530000000     0.906760000000     0.685060000000     0          
C68      C      0.074700000000     0.915100000000     0.637900000000     0          
H43      H      0.062360000000     0.895940000000     0.647470000000     0          
C69      C      0.155000000000     0.955900000000     0.670500000000     0          
H44?     H      0.022890000000     0.962540000000     0.654280000000     0          
H45?     H      0.988970000000     0.945240000000     0.670760000000     0          
H46?     H      0.988150000000     0.978620000000     0.638950000000     0          
H47?     H      0.022890000000     0.497610000000     0.827090000000     0          
H48?     H      0.988900000000     0.516080000000     0.813830000000     0          
H49?     H      0.988210000000     0.480210000000     0.839590000000     0          
Zr1      Zr     0.938220000000     0.722820000000     0.250000000000     0          
Zr2      Zr     0.000000000000     0.659400000000     0.250000000000     0          
Zr4      Zr     0.000000000000     0.785910000000     0.250000000000     0          
Zr3      Zr     0.000000000000     0.722790000000     0.337900000000     0          
O23      O      0.000000000000     0.635400000000     0.174400000000     0          
O24      O      0.000000000000     0.676700000000     0.121500000000     0          
O27      O      0.000000000000     0.769800000000     0.377700000000     0          
O28      O      0.000000000000     0.810300000000     0.323700000000     0          
C31      C      0.000000000000     0.554800000000     0.972300000000     0          
C34      C      0.000000000000     0.518600000000     0.885200000000     0          
C35      C      0.000000000000     0.577800000000     0.014300000000     0          
C36      C      0.000000000000     0.611500000000     0.009400000000     0          
H22      H      0.000000000000     0.620100000000     0.977700000000     0          
C37      C      0.000000000000     0.634600000000     0.046100000000     0          
H23      H      0.000000000000     0.658100000000     0.040100000000     0          
C38      C      0.000000000000     0.621600000000     0.092600000000     0          
C39      C      0.000000000000     0.586600000000     0.099300000000     0          
H24      H      0.000000000000     0.577980000000     0.130990000000     0          
C40      C      0.000000000000     0.565000000000     0.062500000000     0          
H25      H      0.000000000000     0.541510000000     0.068090000000     0          
C41      C      0.000000000000     0.645900000000     0.133800000000     0          
C50      C      0.000000000000     0.501700000000     0.837300000000     0          
C51      C      0.000000000000     0.896400000000     0.518000000000     0          
C54      C      0.000000000000     0.936500000000     0.600000000000     0          
C55      C      0.000000000000     0.873200000000     0.477200000000     0          
C56      C      0.000000000000     0.837600000000     0.487100000000     0          
H33      H      0.000000000000     0.830650000000     0.519560000000     0          
C57      C      0.000000000000     0.812300000000     0.450900000000     0          
H34      H      0.000000000000     0.788960000000     0.458040000000     0          
C58      C      0.000000000000     0.824600000000     0.404300000000     0          
C59      C      0.000000000000     0.859600000000     0.393800000000     0          
H35      H      0.000000000000     0.867120000000     0.361560000000     0          
C60      C      0.000000000000     0.882100000000     0.430600000000     0          
H36      H      0.000000000000     0.905360000000     0.423030000000     0          
C61      C      0.000000000000     0.799600000000     0.365100000000     0          
C70      C      0.000000000000     0.957600000000     0.645000000000     0          
Zr5      Zr     0.787880000000     0.525650000000     0.750000000000     0          
Zr8      Zr     0.707270000000     0.433720000000     0.750000000000     0          
O8       O      0.793200000000     0.472900000000     0.750000000000     0          
O9       O      0.736900000000     0.525900000000     0.750000000000     0          
O11      O      0.760900000000     0.421600000000     0.750000000000     0          
O12      O      0.689500000000     0.488400000000     0.750000000000     0          
Zr6      Zr     0.219520000000     0.449580000000     0.812640000000     0          
Zr7      Zr     0.284930000000     0.509410000000     0.813640000000     0          
O1       O      0.030500000000     0.691000000000     0.292100000000     0          
O2       O      0.032200000000     0.754400000000     0.206200000000     0          
O7       O      0.231550000000     0.503240000000     0.821400000000     0          
O10      O      0.270020000000     0.459000000000     0.805500000000     0          
O13      O      0.087010000000     0.721900000000     0.320700000000     0          
O14      O      0.048140000000     0.723000000000     0.376800000000     0          
O16      O      0.220000000000     0.452800000000     0.890900000000     0          
O17      O      0.282100000000     0.508400000000     0.891800000000     0          
O19      O      0.218350000000     0.568980000000     0.702000000000     0          
O20      O      0.265820000000     0.561100000000     0.662700000000     0          
O21      O      0.260220000000     0.901580000000     0.658800000000     0          
O22      O      0.214170000000     0.890390000000     0.701000000000     0          
O25      O      0.169010000000     0.523490000000     0.703000000000     0          
O26      O      0.171740000000     0.472960000000     0.665200000000     0          
O29      O      0.835660000000     0.935180000000     0.798200000000     0          
O30      O      0.830250000000     0.982500000000     0.840400000000     0          
C1       C      0.180200000000     0.728000000000     0.508500000000     0          
C2       C      0.192400000000     0.697500000000     0.527900000000     0          
C3       C      0.213500000000     0.699400000000     0.566900000000     0          
C4       C      0.223900000000     0.730000000000     0.586600000000     0          
C5       C      0.212000000000     0.760000000000     0.566600000000     0          
C6       C      0.191000000000     0.758500000000     0.526700000000     0          
C7       C      0.154400000000     0.726500000000     0.469800000000     0          
C8       C      0.161800000000     0.727500000000     0.422000000000     0          
H1       H      0.184310000000     0.729600000000     0.412510000000     0          
C9       C      0.138000000000     0.725500000000     0.387700000000     0          
H2       H      0.144040000000     0.724900000000     0.354850000000     0          
C10      C      0.104200000000     0.724400000000     0.401300000000     0          
C11      C      0.096400000000     0.724400000000     0.448900000000     0          
H3       H      0.073860000000     0.723000000000     0.458440000000     0          
C12      C      0.120500000000     0.726300000000     0.482900000000     0          
H4       H      0.114560000000     0.727480000000     0.515720000000     0          
C13      C      0.077700000000     0.722100000000     0.363600000000     0          
C14      C      0.180200000000     0.664200000000     0.509500000000     0          
H5       H      0.195230000000     0.646340000000     0.520030000000     0          
H6       H      0.179420000000     0.664660000000     0.474510000000     0          
H7       H      0.157910000000     0.659830000000     0.522080000000     0          
C15      C      0.222200000000     0.668000000000     0.593200000000     0          
C16      C      0.250000000000     0.648800000000     0.584100000000     0          
H8       H      0.264970000000     0.655280000000     0.559640000000     0          
C17      C      0.256000000000     0.619800000000     0.611100000000     0          
H9       H      0.275920000000     0.607720000000     0.605250000000     0          
C18      C      0.235200000000     0.608100000000     0.644900000000     0          
C19      C      0.206400000000     0.627000000000     0.655000000000     0          
H10      H      0.191030000000     0.619890000000     0.678730000000     0          
C20      C      0.201000000000     0.657200000000     0.628700000000     0          
H11      H      0.182040000000     0.670350000000     0.635920000000     0          
C21      C      0.240600000000     0.576400000000     0.672600000000     0          
C22      C      0.247100000000     0.731200000000     0.628300000000     0          
H12      H      0.235430000000     0.740040000000     0.656340000000     0          
H13      H      0.265910000000     0.745770000000     0.620670000000     0          
H14      H      0.255170000000     0.708490000000     0.635290000000     0          
C23      C      0.219200000000     0.793500000000     0.590200000000     0          
C24      C      0.199200000000     0.801400000000     0.628300000000     0          
H15      H      0.181630000000     0.786710000000     0.637060000000     0          
C25      C      0.204500000000     0.830900000000     0.654300000000     0          
H16      H      0.190820000000     0.835960000000     0.681000000000     0          
C26      C      0.229300000000     0.852600000000     0.641400000000     0          
C27      C      0.250000000000     0.842700000000     0.603200000000     0          
H17      H      0.268150000000     0.856540000000     0.594450000000     0          
C28      C      0.244200000000     0.813200000000     0.578200000000     0          
H18      H      0.258330000000     0.807140000000     0.552390000000     0          
C29      C      0.234800000000     0.883300000000     0.669300000000     0          
C30      C      0.178000000000     0.790400000000     0.504300000000     0          
H19      H      0.185040000000     0.809710000000     0.523430000000     0          
H20      H      0.153720000000     0.789590000000     0.503170000000     0          
H21      H      0.186740000000     0.792530000000     0.471760000000     0          
C32      C      0.029800000000     0.546000000000     0.548000000000     0          
C33      C      0.029900000000     0.527500000000     0.591400000000     0          
C42      C      0.063300000000     0.554800000000     0.525300000000     0          
H26      H      0.080560000000     0.554460000000     0.549900000000     0          
H27      H      0.062080000000     0.577240000000     0.511050000000     0          
H28      H      0.068560000000     0.538320000000     0.500450000000     0          
C43      C      0.062200000000     0.519200000000     0.614900000000     0          
C44      C      0.079000000000     0.489700000000     0.603700000000     0          
H29      H      0.069400000000     0.473860000000     0.582390000000     0          
C45      C      0.109300000000     0.483700000000     0.623600000000     0          
H30      H      0.120730000000     0.463580000000     0.615940000000     0          
C46      C      0.124000000000     0.506700000000     0.655300000000     0          
C47      C      0.106500000000     0.535700000000     0.665800000000     0          
H31      H      0.115590000000     0.551720000000     0.687370000000     0          
C48      C      0.077300000000     0.541300000000     0.645900000000     0          
H32      H      0.066100000000     0.561590000000     0.653460000000     0          
C49      C      0.157700000000     0.500200000000     0.676300000000     0          
C52      C      0.969900000000     0.907000000000     0.960800000000     0          
C53      C      0.970500000000     0.926200000000     0.920300000000     0          
C62      C      0.937900000000     0.894000000000     0.982400000000     0          
H37      H      0.919940000000     0.896080000000     0.958970000000     0          
H38      H      0.932390000000     0.907150000000     0.010950000000     0          
H39      H      0.940570000000     0.870350000000     0.991280000000     0          
C63      C      0.937800000000     0.934400000000     0.896700000000     0          
C64      C      0.919500000000     0.962300000000     0.909600000000     0          
H40      H      0.927440000000     0.976060000000     0.934960000000     0          
C65      C      0.889600000000     0.971200000000     0.886700000000     0          
H41      H      0.878400000000     0.991550000000     0.893720000000     0          
C66      C      0.877300000000     0.948000000000     0.852600000000     0          
C67      C      0.895900000000     0.921300000000     0.839700000000     0          
H42      H      0.888470000000     0.906760000000     0.814940000000     0          
C68      C      0.925300000000     0.915100000000     0.862100000000     0          
H43      H      0.937640000000     0.895940000000     0.852530000000     0          
C69      C      0.845000000000     0.955900000000     0.829500000000     0          
H44?     H      0.977110000000     0.962540000000     0.845720000000     0          
H45?     H      0.011030000000     0.945240000000     0.829240000000     0          
H46?     H      0.011850000000     0.978620000000     0.861050000000     0          
H47?     H      0.977110000000     0.497610000000     0.672910000000     0          
H48?     H      0.011100000000     0.516080000000     0.686170000000     0          
H49?     H      0.011790000000     0.480210000000     0.660410000000     0          
Zr1      Zr     0.061780000000     0.722820000000     0.250000000000     0          
Zr3      Zr     0.000000000000     0.722790000000     0.162100000000     0          
O23      O      0.000000000000     0.635400000000     0.325600000000     0          
O24      O      0.000000000000     0.676700000000     0.378500000000     0          
O27      O      0.000000000000     0.769800000000     0.122300000000     0          
O28      O      0.000000000000     0.810300000000     0.176300000000     0          
C31      C      0.000000000000     0.554800000000     0.527700000000     0          
C34      C      0.000000000000     0.518600000000     0.614800000000     0          
C35      C      0.000000000000     0.577800000000     0.485700000000     0          
C36      C      0.000000000000     0.611500000000     0.490600000000     0          
H22      H      0.000000000000     0.620100000000     0.522300000000     0          
C37      C      0.000000000000     0.634600000000     0.453900000000     0          
H23      H      0.000000000000     0.658100000000     0.459900000000     0          
C38      C      0.000000000000     0.621600000000     0.407400000000     0          
C39      C      0.000000000000     0.586600000000     0.400700000000     0          
H24      H      0.000000000000     0.577980000000     0.369010000000     0          
C40      C      0.000000000000     0.565000000000     0.437500000000     0          
H25      H      0.000000000000     0.541510000000     0.431910000000     0          
C41      C      0.000000000000     0.645900000000     0.366200000000     0          
C50      C      0.000000000000     0.501700000000     0.662700000000     0          
C51      C      0.000000000000     0.896400000000     0.982000000000     0          
C54      C      0.000000000000     0.936500000000     0.900000000000     0          
C55      C      0.000000000000     0.873200000000     0.022800000000     0          
C56      C      0.000000000000     0.837600000000     0.012900000000     0          
H33      H      0.000000000000     0.830650000000     0.980440000000     0          
C57      C      0.000000000000     0.812300000000     0.049100000000     0          
H34      H      0.000000000000     0.788960000000     0.041960000000     0          
C58      C      0.000000000000     0.824600000000     0.095700000000     0          
C59      C      0.000000000000     0.859600000000     0.106200000000     0          
H35      H      0.000000000000     0.867120000000     0.138440000000     0          
C60      C      0.000000000000     0.882100000000     0.069400000000     0          
H36      H      0.000000000000     0.905360000000     0.076970000000     0          
C61      C      0.000000000000     0.799600000000     0.134900000000     0          
C70      C      0.000000000000     0.957600000000     0.855000000000     0          
Zr5      Zr     0.212120000000     0.525650000000     0.750000000000     0          
Zr8      Zr     0.292730000000     0.433720000000     0.750000000000     0          
O8       O      0.206800000000     0.472900000000     0.750000000000     0          
O9       O      0.263100000000     0.525900000000     0.750000000000     0          
O11      O      0.239100000000     0.421600000000     0.750000000000     0          
O12      O      0.310500000000     0.488400000000     0.750000000000     0          
Zr6      Zr     0.780480000000     0.550420000000     0.312640000000     0          
Zr7      Zr     0.715070000000     0.490590000000     0.313640000000     0          
O1       O      0.969500000000     0.309000000000     0.792100000000     0          
O2       O      0.967800000000     0.245600000000     0.706200000000     0          
O7       O      0.768450000000     0.496760000000     0.321400000000     0          
O10      O      0.729980000000     0.541000000000     0.305500000000     0          
O13      O      0.912990000000     0.278100000000     0.820700000000     0          
O14      O      0.951860000000     0.277000000000     0.876800000000     0          
O16      O      0.780000000000     0.547200000000     0.390900000000     0          
O17      O      0.717900000000     0.491600000000     0.391800000000     0          
O19      O      0.781650000000     0.431020000000     0.202000000000     0          
O20      O      0.734180000000     0.438900000000     0.162700000000     0          
O21      O      0.739780000000     0.098420000000     0.158800000000     0          
O22      O      0.785830000000     0.109610000000     0.201000000000     0          
O25      O      0.830990000000     0.476510000000     0.203000000000     0          
O26      O      0.828260000000     0.527040000000     0.165200000000     0          
O29      O      0.164340000000     0.064820000000     0.298200000000     0          
O30      O      0.169750000000     0.017500000000     0.340400000000     0          
C1       C      0.819800000000     0.272000000000     0.008500000000     0          
C2       C      0.807600000000     0.302500000000     0.027900000000     0          
C3       C      0.786500000000     0.300600000000     0.066900000000     0          
C4       C      0.776100000000     0.270000000000     0.086600000000     0          
C5       C      0.788000000000     0.240000000000     0.066600000000     0          
C6       C      0.809000000000     0.241500000000     0.026700000000     0          
C7       C      0.845600000000     0.273500000000     0.969800000000     0          
C8       C      0.838200000000     0.272500000000     0.922000000000     0          
H1       H      0.815690000000     0.270400000000     0.912510000000     0          
C9       C      0.862000000000     0.274500000000     0.887700000000     0          
H2       H      0.855960000000     0.275100000000     0.854850000000     0          
C10      C      0.895800000000     0.275600000000     0.901300000000     0          
C11      C      0.903600000000     0.275600000000     0.948900000000     0          
H3       H      0.926140000000     0.277000000000     0.958440000000     0          
C12      C      0.879500000000     0.273700000000     0.982900000000     0          
H4       H      0.885440000000     0.272520000000     0.015720000000     0          
C13      C      0.922300000000     0.277900000000     0.863600000000     0          
C14      C      0.819800000000     0.335800000000     0.009500000000     0          
H5       H      0.804770000000     0.353660000000     0.020030000000     0          
H6       H      0.820580000000     0.335340000000     0.974510000000     0          
H7       H      0.842090000000     0.340170000000     0.022080000000     0          
C15      C      0.777800000000     0.332000000000     0.093200000000     0          
C16      C      0.750000000000     0.351200000000     0.084100000000     0          
H8       H      0.735030000000     0.344720000000     0.059640000000     0          
C17      C      0.744000000000     0.380200000000     0.111100000000     0          
H9       H      0.724080000000     0.392280000000     0.105250000000     0          
C18      C      0.764800000000     0.391900000000     0.144900000000     0          
C19      C      0.793600000000     0.373000000000     0.155000000000     0          
H10      H      0.808970000000     0.380110000000     0.178730000000     0          
C20      C      0.799000000000     0.342800000000     0.128700000000     0          
H11      H      0.817960000000     0.329650000000     0.135920000000     0          
C21      C      0.759400000000     0.423600000000     0.172600000000     0          
C22      C      0.752900000000     0.268800000000     0.128300000000     0          
H12      H      0.764570000000     0.259960000000     0.156340000000     0          
H13      H      0.734090000000     0.254230000000     0.120670000000     0          
H14      H      0.744830000000     0.291510000000     0.135290000000     0          
C23      C      0.780800000000     0.206500000000     0.090200000000     0          
C24      C      0.800800000000     0.198600000000     0.128300000000     0          
H15      H      0.818370000000     0.213290000000     0.137060000000     0          
C25      C      0.795500000000     0.169100000000     0.154300000000     0          
H16      H      0.809180000000     0.164040000000     0.181000000000     0          
C26      C      0.770700000000     0.147400000000     0.141400000000     0          
C27      C      0.750000000000     0.157300000000     0.103200000000     0          
H17      H      0.731850000000     0.143460000000     0.094450000000     0          
C28      C      0.755800000000     0.186800000000     0.078200000000     0          
H18      H      0.741670000000     0.192860000000     0.052390000000     0          
C29      C      0.765200000000     0.116700000000     0.169300000000     0          
C30      C      0.822000000000     0.209600000000     0.004300000000     0          
H19      H      0.814960000000     0.190290000000     0.023430000000     0          
H20      H      0.846280000000     0.210410000000     0.003170000000     0          
H21      H      0.813260000000     0.207470000000     0.971760000000     0          
C32      C      0.970200000000     0.454000000000     0.048000000000     0          
C33      C      0.970100000000     0.472500000000     0.091400000000     0          
C42      C      0.936700000000     0.445200000000     0.025300000000     0          
H26      H      0.919440000000     0.445540000000     0.049900000000     0          
H27      H      0.937920000000     0.422760000000     0.011050000000     0          
H28      H      0.931440000000     0.461680000000     0.000450000000     0          
C43      C      0.937800000000     0.480800000000     0.114900000000     0          
C44      C      0.921000000000     0.510300000000     0.103700000000     0          
H29      H      0.930600000000     0.526140000000     0.082390000000     0          
C45      C      0.890700000000     0.516300000000     0.123600000000     0          
H30      H      0.879270000000     0.536420000000     0.115940000000     0          
C46      C      0.876000000000     0.493300000000     0.155300000000     0          
C47      C      0.893500000000     0.464300000000     0.165800000000     0          
H31      H      0.884410000000     0.448280000000     0.187370000000     0          
C48      C      0.922700000000     0.458700000000     0.145900000000     0          
H32      H      0.933900000000     0.438410000000     0.153460000000     0          
C49      C      0.842300000000     0.499800000000     0.176300000000     0          
C52      C      0.030100000000     0.093000000000     0.460800000000     0          
C53      C      0.029500000000     0.073800000000     0.420300000000     0          
C62      C      0.062100000000     0.106000000000     0.482400000000     0          
H37      H      0.080060000000     0.103920000000     0.458970000000     0          
H38      H      0.067610000000     0.092850000000     0.510950000000     0          
H39      H      0.059430000000     0.129650000000     0.491280000000     0          
C63      C      0.062200000000     0.065600000000     0.396700000000     0          
C64      C      0.080500000000     0.037700000000     0.409600000000     0          
H40      H      0.072560000000     0.023940000000     0.434960000000     0          
C65      C      0.110400000000     0.028800000000     0.386700000000     0          
H41      H      0.121600000000     0.008450000000     0.393720000000     0          
C66      C      0.122700000000     0.052000000000     0.352600000000     0          
C67      C      0.104100000000     0.078700000000     0.339700000000     0          
H42      H      0.111530000000     0.093240000000     0.314940000000     0          
C68      C      0.074700000000     0.084900000000     0.362100000000     0          
H43      H      0.062360000000     0.104060000000     0.352530000000     0          
C69      C      0.155000000000     0.044100000000     0.329500000000     0          
H44?     H      0.022890000000     0.037460000000     0.345720000000     0          
H45?     H      0.988970000000     0.054760000000     0.329240000000     0          
H46?     H      0.988150000000     0.021380000000     0.361050000000     0          
H47?     H      0.022890000000     0.502390000000     0.172910000000     0          
H48?     H      0.988900000000     0.483920000000     0.186170000000     0          
H49?     H      0.988210000000     0.519790000000     0.160410000000     0          
Zr1      Zr     0.938220000000     0.277180000000     0.750000000000     0          
Zr3      Zr     0.000000000000     0.277210000000     0.662100000000     0          
O23      O      0.000000000000     0.364600000000     0.825600000000     0          
O24      O      0.000000000000     0.323300000000     0.878500000000     0          
O27      O      0.000000000000     0.230200000000     0.622300000000     0          
O28      O      0.000000000000     0.189700000000     0.676300000000     0          
C31      C      0.000000000000     0.445200000000     0.027700000000     0          
C34      C      0.000000000000     0.481400000000     0.114800000000     0          
C35      C      0.000000000000     0.422200000000     0.985700000000     0          
C36      C      0.000000000000     0.388500000000     0.990600000000     0          
H22      H      0.000000000000     0.379900000000     0.022300000000     0          
C37      C      0.000000000000     0.365400000000     0.953900000000     0          
H23      H      0.000000000000     0.341900000000     0.959900000000     0          
C38      C      0.000000000000     0.378400000000     0.907400000000     0          
C39      C      0.000000000000     0.413400000000     0.900700000000     0          
H24      H      0.000000000000     0.422020000000     0.869010000000     0          
C40      C      0.000000000000     0.435000000000     0.937500000000     0          
H25      H      0.000000000000     0.458490000000     0.931910000000     0          
C41      C      0.000000000000     0.354100000000     0.866200000000     0          
C50      C      0.000000000000     0.498300000000     0.162700000000     0          
C51      C      0.000000000000     0.103600000000     0.482000000000     0          
C54      C      0.000000000000     0.063500000000     0.400000000000     0          
C55      C      0.000000000000     0.126800000000     0.522800000000     0          
C56      C      0.000000000000     0.162400000000     0.512900000000     0          
H33      H      0.000000000000     0.169350000000     0.480440000000     0          
C57      C      0.000000000000     0.187700000000     0.549100000000     0          
H34      H      0.000000000000     0.211040000000     0.541960000000     0          
C58      C      0.000000000000     0.175400000000     0.595700000000     0          
C59      C      0.000000000000     0.140400000000     0.606200000000     0          
H35      H      0.000000000000     0.132880000000     0.638440000000     0          
C60      C      0.000000000000     0.117900000000     0.569400000000     0          
H36      H      0.000000000000     0.094640000000     0.576970000000     0          
C61      C      0.000000000000     0.200400000000     0.634900000000     0          
C70      C      0.000000000000     0.042400000000     0.355000000000     0          
Zr5      Zr     0.787880000000     0.474350000000     0.250000000000     0          
Zr8      Zr     0.707270000000     0.566280000000     0.250000000000     0          
O8       O      0.793200000000     0.527100000000     0.250000000000     0          
O9       O      0.736900000000     0.474100000000     0.250000000000     0          
O11      O      0.760900000000     0.578400000000     0.250000000000     0          
O12      O      0.689500000000     0.511600000000     0.250000000000     0          
Zr6      Zr     0.780480000000     0.449580000000     0.812640000000     0          
Zr7      Zr     0.715070000000     0.509410000000     0.813640000000     0          
O1       O      0.969500000000     0.691000000000     0.292100000000     0          
O2       O      0.967800000000     0.754400000000     0.206200000000     0          
O7       O      0.768450000000     0.503240000000     0.821400000000     0          
O10      O      0.729980000000     0.459000000000     0.805500000000     0          
O13      O      0.912990000000     0.721900000000     0.320700000000     0          
O14      O      0.951860000000     0.723000000000     0.376800000000     0          
O16      O      0.780000000000     0.452800000000     0.890900000000     0          
O17      O      0.717900000000     0.508400000000     0.891800000000     0          
O19      O      0.781650000000     0.568980000000     0.702000000000     0          
O20      O      0.734180000000     0.561100000000     0.662700000000     0          
O21      O      0.739780000000     0.901580000000     0.658800000000     0          
O22      O      0.785830000000     0.890390000000     0.701000000000     0          
O25      O      0.830990000000     0.523490000000     0.703000000000     0          
O26      O      0.828260000000     0.472960000000     0.665200000000     0          
O29      O      0.164340000000     0.935180000000     0.798200000000     0          
O30      O      0.169750000000     0.982500000000     0.840400000000     0          
C1       C      0.819800000000     0.728000000000     0.508500000000     0          
C2       C      0.807600000000     0.697500000000     0.527900000000     0          
C3       C      0.786500000000     0.699400000000     0.566900000000     0          
C4       C      0.776100000000     0.730000000000     0.586600000000     0          
C5       C      0.788000000000     0.760000000000     0.566600000000     0          
C6       C      0.809000000000     0.758500000000     0.526700000000     0          
C7       C      0.845600000000     0.726500000000     0.469800000000     0          
C8       C      0.838200000000     0.727500000000     0.422000000000     0          
H1       H      0.815690000000     0.729600000000     0.412510000000     0          
C9       C      0.862000000000     0.725500000000     0.387700000000     0          
H2       H      0.855960000000     0.724900000000     0.354850000000     0          
C10      C      0.895800000000     0.724400000000     0.401300000000     0          
C11      C      0.903600000000     0.724400000000     0.448900000000     0          
H3       H      0.926140000000     0.723000000000     0.458440000000     0          
C12      C      0.879500000000     0.726300000000     0.482900000000     0          
H4       H      0.885440000000     0.727480000000     0.515720000000     0          
C13      C      0.922300000000     0.722100000000     0.363600000000     0          
C14      C      0.819800000000     0.664200000000     0.509500000000     0          
H5       H      0.804770000000     0.646340000000     0.520030000000     0          
H6       H      0.820580000000     0.664660000000     0.474510000000     0          
H7       H      0.842090000000     0.659830000000     0.522080000000     0          
C15      C      0.777800000000     0.668000000000     0.593200000000     0          
C16      C      0.750000000000     0.648800000000     0.584100000000     0          
H8       H      0.735030000000     0.655280000000     0.559640000000     0          
C17      C      0.744000000000     0.619800000000     0.611100000000     0          
H9       H      0.724080000000     0.607720000000     0.605250000000     0          
C18      C      0.764800000000     0.608100000000     0.644900000000     0          
C19      C      0.793600000000     0.627000000000     0.655000000000     0          
H10      H      0.808970000000     0.619890000000     0.678730000000     0          
C20      C      0.799000000000     0.657200000000     0.628700000000     0          
H11      H      0.817960000000     0.670350000000     0.635920000000     0          
C21      C      0.759400000000     0.576400000000     0.672600000000     0          
C22      C      0.752900000000     0.731200000000     0.628300000000     0          
H12      H      0.764570000000     0.740040000000     0.656340000000     0          
H13      H      0.734090000000     0.745770000000     0.620670000000     0          
H14      H      0.744830000000     0.708490000000     0.635290000000     0          
C23      C      0.780800000000     0.793500000000     0.590200000000     0          
C24      C      0.800800000000     0.801400000000     0.628300000000     0          
H15      H      0.818370000000     0.786710000000     0.637060000000     0          
C25      C      0.795500000000     0.830900000000     0.654300000000     0          
H16      H      0.809180000000     0.835960000000     0.681000000000     0          
C26      C      0.770700000000     0.852600000000     0.641400000000     0          
C27      C      0.750000000000     0.842700000000     0.603200000000     0          
H17      H      0.731850000000     0.856540000000     0.594450000000     0          
C28      C      0.755800000000     0.813200000000     0.578200000000     0          
H18      H      0.741670000000     0.807140000000     0.552390000000     0          
C29      C      0.765200000000     0.883300000000     0.669300000000     0          
C30      C      0.822000000000     0.790400000000     0.504300000000     0          
H19      H      0.814960000000     0.809710000000     0.523430000000     0          
H20      H      0.846280000000     0.789590000000     0.503170000000     0          
H21      H      0.813260000000     0.792530000000     0.471760000000     0          
C32      C      0.970200000000     0.546000000000     0.548000000000     0          
C33      C      0.970100000000     0.527500000000     0.591400000000     0          
C42      C      0.936700000000     0.554800000000     0.525300000000     0          
H26      H      0.919440000000     0.554460000000     0.549900000000     0          
H27      H      0.937920000000     0.577240000000     0.511050000000     0          
H28      H      0.931440000000     0.538320000000     0.500450000000     0          
C43      C      0.937800000000     0.519200000000     0.614900000000     0          
C44      C      0.921000000000     0.489700000000     0.603700000000     0          
H29      H      0.930600000000     0.473860000000     0.582390000000     0          
C45      C      0.890700000000     0.483700000000     0.623600000000     0          
H30      H      0.879270000000     0.463580000000     0.615940000000     0          
C46      C      0.876000000000     0.506700000000     0.655300000000     0          
C47      C      0.893500000000     0.535700000000     0.665800000000     0          
H31      H      0.884410000000     0.551720000000     0.687370000000     0          
C48      C      0.922700000000     0.541300000000     0.645900000000     0          
H32      H      0.933900000000     0.561590000000     0.653460000000     0          
C49      C      0.842300000000     0.500200000000     0.676300000000     0          
C52      C      0.030100000000     0.907000000000     0.960800000000     0          
C53      C      0.029500000000     0.926200000000     0.920300000000     0          
C62      C      0.062100000000     0.894000000000     0.982400000000     0          
H37      H      0.080060000000     0.896080000000     0.958970000000     0          
H38      H      0.067610000000     0.907150000000     0.010950000000     0          
H39      H      0.059430000000     0.870350000000     0.991280000000     0          
C63      C      0.062200000000     0.934400000000     0.896700000000     0          
C64      C      0.080500000000     0.962300000000     0.909600000000     0          
H40      H      0.072560000000     0.976060000000     0.934960000000     0          
C65      C      0.110400000000     0.971200000000     0.886700000000     0          
H41      H      0.121600000000     0.991550000000     0.893720000000     0          
C66      C      0.122700000000     0.948000000000     0.852600000000     0          
C67      C      0.104100000000     0.921300000000     0.839700000000     0          
H42      H      0.111530000000     0.906760000000     0.814940000000     0          
C68      C      0.074700000000     0.915100000000     0.862100000000     0          
H43      H      0.062360000000     0.895940000000     0.852530000000     0          
C69      C      0.155000000000     0.955900000000     0.829500000000     0          
H44?     H      0.022890000000     0.962540000000     0.845720000000     0          
H45?     H      0.988970000000     0.945240000000     0.829240000000     0          
H46?     H      0.988150000000     0.978620000000     0.861050000000     0          
H47?     H      0.022890000000     0.497610000000     0.672910000000     0          
H48?     H      0.988900000000     0.516080000000     0.686170000000     0          
H49?     H      0.988210000000     0.480210000000     0.660410000000     0          
Zr6      Zr     0.219520000000     0.550420000000     0.312640000000     0          
Zr7      Zr     0.284930000000     0.490590000000     0.313640000000     0          
O1       O      0.030500000000     0.309000000000     0.792100000000     0          
O2       O      0.032200000000     0.245600000000     0.706200000000     0          
O7       O      0.231550000000     0.496760000000     0.321400000000     0          
O10      O      0.270020000000     0.541000000000     0.305500000000     0          
O13      O      0.087010000000     0.278100000000     0.820700000000     0          
O14      O      0.048140000000     0.277000000000     0.876800000000     0          
O16      O      0.220000000000     0.547200000000     0.390900000000     0          
O17      O      0.282100000000     0.491600000000     0.391800000000     0          
O19      O      0.218350000000     0.431020000000     0.202000000000     0          
O20      O      0.265820000000     0.438900000000     0.162700000000     0          
O21      O      0.260220000000     0.098420000000     0.158800000000     0          
O22      O      0.214170000000     0.109610000000     0.201000000000     0          
O25      O      0.169010000000     0.476510000000     0.203000000000     0          
O26      O      0.171740000000     0.527040000000     0.165200000000     0          
O29      O      0.835660000000     0.064820000000     0.298200000000     0          
O30      O      0.830250000000     0.017500000000     0.340400000000     0          
C1       C      0.180200000000     0.272000000000     0.008500000000     0          
C2       C      0.192400000000     0.302500000000     0.027900000000     0          
C3       C      0.213500000000     0.300600000000     0.066900000000     0          
C4       C      0.223900000000     0.270000000000     0.086600000000     0          
C5       C      0.212000000000     0.240000000000     0.066600000000     0          
C6       C      0.191000000000     0.241500000000     0.026700000000     0          
C7       C      0.154400000000     0.273500000000     0.969800000000     0          
C8       C      0.161800000000     0.272500000000     0.922000000000     0          
H1       H      0.184310000000     0.270400000000     0.912510000000     0          
C9       C      0.138000000000     0.274500000000     0.887700000000     0          
H2       H      0.144040000000     0.275100000000     0.854850000000     0          
C10      C      0.104200000000     0.275600000000     0.901300000000     0          
C11      C      0.096400000000     0.275600000000     0.948900000000     0          
H3       H      0.073860000000     0.277000000000     0.958440000000     0          
C12      C      0.120500000000     0.273700000000     0.982900000000     0          
H4       H      0.114560000000     0.272520000000     0.015720000000     0          
C13      C      0.077700000000     0.277900000000     0.863600000000     0          
C14      C      0.180200000000     0.335800000000     0.009500000000     0          
H5       H      0.195230000000     0.353660000000     0.020030000000     0          
H6       H      0.179420000000     0.335340000000     0.974510000000     0          
H7       H      0.157910000000     0.340170000000     0.022080000000     0          
C15      C      0.222200000000     0.332000000000     0.093200000000     0          
C16      C      0.250000000000     0.351200000000     0.084100000000     0          
H8       H      0.264970000000     0.344720000000     0.059640000000     0          
C17      C      0.256000000000     0.380200000000     0.111100000000     0          
H9       H      0.275920000000     0.392280000000     0.105250000000     0          
C18      C      0.235200000000     0.391900000000     0.144900000000     0          
C19      C      0.206400000000     0.373000000000     0.155000000000     0          
H10      H      0.191030000000     0.380110000000     0.178730000000     0          
C20      C      0.201000000000     0.342800000000     0.128700000000     0          
H11      H      0.182040000000     0.329650000000     0.135920000000     0          
C21      C      0.240600000000     0.423600000000     0.172600000000     0          
C22      C      0.247100000000     0.268800000000     0.128300000000     0          
H12      H      0.235430000000     0.259960000000     0.156340000000     0          
H13      H      0.265910000000     0.254230000000     0.120670000000     0          
H14      H      0.255170000000     0.291510000000     0.135290000000     0          
C23      C      0.219200000000     0.206500000000     0.090200000000     0          
C24      C      0.199200000000     0.198600000000     0.128300000000     0          
H15      H      0.181630000000     0.213290000000     0.137060000000     0          
C25      C      0.204500000000     0.169100000000     0.154300000000     0          
H16      H      0.190820000000     0.164040000000     0.181000000000     0          
C26      C      0.229300000000     0.147400000000     0.141400000000     0          
C27      C      0.250000000000     0.157300000000     0.103200000000     0          
H17      H      0.268150000000     0.143460000000     0.094450000000     0          
C28      C      0.244200000000     0.186800000000     0.078200000000     0          
H18      H      0.258330000000     0.192860000000     0.052390000000     0          
C29      C      0.234800000000     0.116700000000     0.169300000000     0          
C30      C      0.178000000000     0.209600000000     0.004300000000     0          
H19      H      0.185040000000     0.190290000000     0.023430000000     0          
H20      H      0.153720000000     0.210410000000     0.003170000000     0          
H21      H      0.186740000000     0.207470000000     0.971760000000     0          
C32      C      0.029800000000     0.454000000000     0.048000000000     0          
C33      C      0.029900000000     0.472500000000     0.091400000000     0          
C42      C      0.063300000000     0.445200000000     0.025300000000     0          
H26      H      0.080560000000     0.445540000000     0.049900000000     0          
H27      H      0.062080000000     0.422760000000     0.011050000000     0          
H28      H      0.068560000000     0.461680000000     0.000450000000     0          
C43      C      0.062200000000     0.480800000000     0.114900000000     0          
C44      C      0.079000000000     0.510300000000     0.103700000000     0          
H29      H      0.069400000000     0.526140000000     0.082390000000     0          
C45      C      0.109300000000     0.516300000000     0.123600000000     0          
H30      H      0.120730000000     0.536420000000     0.115940000000     0          
C46      C      0.124000000000     0.493300000000     0.155300000000     0          
C47      C      0.106500000000     0.464300000000     0.165800000000     0          
H31      H      0.115590000000     0.448280000000     0.187370000000     0          
C48      C      0.077300000000     0.458700000000     0.145900000000     0          
H32      H      0.066100000000     0.438410000000     0.153460000000     0          
C49      C      0.157700000000     0.499800000000     0.176300000000     0          
C52      C      0.969900000000     0.093000000000     0.460800000000     0          
C53      C      0.970500000000     0.073800000000     0.420300000000     0          
C62      C      0.937900000000     0.106000000000     0.482400000000     0          
H37      H      0.919940000000     0.103920000000     0.458970000000     0          
H38      H      0.932390000000     0.092850000000     0.510950000000     0          
H39      H      0.940570000000     0.129650000000     0.491280000000     0          
C63      C      0.937800000000     0.065600000000     0.396700000000     0          
C64      C      0.919500000000     0.037700000000     0.409600000000     0          
H40      H      0.927440000000     0.023940000000     0.434960000000     0          
C65      C      0.889600000000     0.028800000000     0.386700000000     0          
H41      H      0.878400000000     0.008450000000     0.393720000000     0          
C66      C      0.877300000000     0.052000000000     0.352600000000     0          
C67      C      0.895900000000     0.078700000000     0.339700000000     0          
H42      H      0.888470000000     0.093240000000     0.314940000000     0          
C68      C      0.925300000000     0.084900000000     0.362100000000     0          
H43      H      0.937640000000     0.104060000000     0.352530000000     0          
C69      C      0.845000000000     0.044100000000     0.329500000000     0          
H44?     H      0.977110000000     0.037460000000     0.345720000000     0          
H45?     H      0.011030000000     0.054760000000     0.329240000000     0          
H46?     H      0.011850000000     0.021380000000     0.361050000000     0          
H47?     H      0.977110000000     0.502390000000     0.172910000000     0          
H48?     H      0.011100000000     0.483920000000     0.186170000000     0          
H49?     H      0.011790000000     0.519790000000     0.160410000000     0          
Zr6      Zr     0.780480000000     0.550420000000     0.187360000000     0          
Zr7      Zr     0.715070000000     0.490590000000     0.186360000000     0          
O1       O      0.969500000000     0.309000000000     0.707900000000     0          
O2       O      0.967800000000     0.245600000000     0.793800000000     0          
O7       O      0.768450000000     0.496760000000     0.178600000000     0          
O10      O      0.729980000000     0.541000000000     0.194500000000     0          
O13      O      0.912990000000     0.278100000000     0.679300000000     0          
O14      O      0.951860000000     0.277000000000     0.623200000000     0          
O16      O      0.780000000000     0.547200000000     0.109100000000     0          
O17      O      0.717900000000     0.491600000000     0.108200000000     0          
O19      O      0.781650000000     0.431020000000     0.298000000000     0          
O20      O      0.734180000000     0.438900000000     0.337300000000     0          
O21      O      0.739780000000     0.098420000000     0.341200000000     0          
O22      O      0.785830000000     0.109610000000     0.299000000000     0          
O25      O      0.830990000000     0.476510000000     0.297000000000     0          
O26      O      0.828260000000     0.527040000000     0.334800000000     0          
O29      O      0.164340000000     0.064820000000     0.201800000000     0          
O30      O      0.169750000000     0.017500000000     0.159600000000     0          
C1       C      0.819800000000     0.272000000000     0.491500000000     0          
C2       C      0.807600000000     0.302500000000     0.472100000000     0          
C3       C      0.786500000000     0.300600000000     0.433100000000     0          
C4       C      0.776100000000     0.270000000000     0.413400000000     0          
C5       C      0.788000000000     0.240000000000     0.433400000000     0          
C6       C      0.809000000000     0.241500000000     0.473300000000     0          
C7       C      0.845600000000     0.273500000000     0.530200000000     0          
C8       C      0.838200000000     0.272500000000     0.578000000000     0          
H1       H      0.815690000000     0.270400000000     0.587490000000     0          
C9       C      0.862000000000     0.274500000000     0.612300000000     0          
H2       H      0.855960000000     0.275100000000     0.645150000000     0          
C10      C      0.895800000000     0.275600000000     0.598700000000     0          
C11      C      0.903600000000     0.275600000000     0.551100000000     0          
H3       H      0.926140000000     0.277000000000     0.541560000000     0          
C12      C      0.879500000000     0.273700000000     0.517100000000     0          
H4       H      0.885440000000     0.272520000000     0.484280000000     0          
C13      C      0.922300000000     0.277900000000     0.636400000000     0          
C14      C      0.819800000000     0.335800000000     0.490500000000     0          
H5       H      0.804770000000     0.353660000000     0.479970000000     0          
H6       H      0.820580000000     0.335340000000     0.525490000000     0          
H7       H      0.842090000000     0.340170000000     0.477920000000     0          
C15      C      0.777800000000     0.332000000000     0.406800000000     0          
C16      C      0.750000000000     0.351200000000     0.415900000000     0          
H8       H      0.735030000000     0.344720000000     0.440360000000     0          
C17      C      0.744000000000     0.380200000000     0.388900000000     0          
H9       H      0.724080000000     0.392280000000     0.394750000000     0          
C18      C      0.764800000000     0.391900000000     0.355100000000     0          
C19      C      0.793600000000     0.373000000000     0.345000000000     0          
H10      H      0.808970000000     0.380110000000     0.321270000000     0          
C20      C      0.799000000000     0.342800000000     0.371300000000     0          
H11      H      0.817960000000     0.329650000000     0.364080000000     0          
C21      C      0.759400000000     0.423600000000     0.327400000000     0          
C22      C      0.752900000000     0.268800000000     0.371700000000     0          
H12      H      0.764570000000     0.259960000000     0.343660000000     0          
H13      H      0.734090000000     0.254230000000     0.379330000000     0          
H14      H      0.744830000000     0.291510000000     0.364710000000     0          
C23      C      0.780800000000     0.206500000000     0.409800000000     0          
C24      C      0.800800000000     0.198600000000     0.371700000000     0          
H15      H      0.818370000000     0.213290000000     0.362940000000     0          
C25      C      0.795500000000     0.169100000000     0.345700000000     0          
H16      H      0.809180000000     0.164040000000     0.319000000000     0          
C26      C      0.770700000000     0.147400000000     0.358600000000     0          
C27      C      0.750000000000     0.157300000000     0.396800000000     0          
H17      H      0.731850000000     0.143460000000     0.405550000000     0          
C28      C      0.755800000000     0.186800000000     0.421800000000     0          
H18      H      0.741670000000     0.192860000000     0.447610000000     0          
C29      C      0.765200000000     0.116700000000     0.330700000000     0          
C30      C      0.822000000000     0.209600000000     0.495700000000     0          
H19      H      0.814960000000     0.190290000000     0.476570000000     0          
H20      H      0.846280000000     0.210410000000     0.496830000000     0          
H21      H      0.813260000000     0.207470000000     0.528240000000     0          
C32      C      0.970200000000     0.454000000000     0.452000000000     0          
C33      C      0.970100000000     0.472500000000     0.408600000000     0          
C42      C      0.936700000000     0.445200000000     0.474700000000     0          
H26      H      0.919440000000     0.445540000000     0.450100000000     0          
H27      H      0.937920000000     0.422760000000     0.488950000000     0          
H28      H      0.931440000000     0.461680000000     0.499550000000     0          
C43      C      0.937800000000     0.480800000000     0.385100000000     0          
C44      C      0.921000000000     0.510300000000     0.396300000000     0          
H29      H      0.930600000000     0.526140000000     0.417610000000     0          
C45      C      0.890700000000     0.516300000000     0.376400000000     0          
H30      H      0.879270000000     0.536420000000     0.384060000000     0          
C46      C      0.876000000000     0.493300000000     0.344700000000     0          
C47      C      0.893500000000     0.464300000000     0.334200000000     0          
H31      H      0.884410000000     0.448280000000     0.312630000000     0          
C48      C      0.922700000000     0.458700000000     0.354100000000     0          
H32      H      0.933900000000     0.438410000000     0.346540000000     0          
C49      C      0.842300000000     0.499800000000     0.323700000000     0          
C52      C      0.030100000000     0.093000000000     0.039200000000     0          
C53      C      0.029500000000     0.073800000000     0.079700000000     0          
C62      C      0.062100000000     0.106000000000     0.017600000000     0          
H37      H      0.080060000000     0.103920000000     0.041030000000     0          
H38      H      0.067610000000     0.092850000000     0.989050000000     0          
H39      H      0.059430000000     0.129650000000     0.008720000000     0          
C63      C      0.062200000000     0.065600000000     0.103300000000     0          
C64      C      0.080500000000     0.037700000000     0.090400000000     0          
H40      H      0.072560000000     0.023940000000     0.065040000000     0          
C65      C      0.110400000000     0.028800000000     0.113300000000     0          
H41      H      0.121600000000     0.008450000000     0.106280000000     0          
C66      C      0.122700000000     0.052000000000     0.147400000000     0          
C67      C      0.104100000000     0.078700000000     0.160300000000     0          
H42      H      0.111530000000     0.093240000000     0.185060000000     0          
C68      C      0.074700000000     0.084900000000     0.137900000000     0          
H43      H      0.062360000000     0.104060000000     0.147470000000     0          
C69      C      0.155000000000     0.044100000000     0.170500000000     0          
H44?     H      0.022890000000     0.037460000000     0.154280000000     0          
H45?     H      0.988970000000     0.054760000000     0.170760000000     0          
H46?     H      0.988150000000     0.021380000000     0.138950000000     0          
H47?     H      0.022890000000     0.502390000000     0.327090000000     0          
H48?     H      0.988900000000     0.483920000000     0.313830000000     0          
H49?     H      0.988210000000     0.519790000000     0.339590000000     0          
Zr6      Zr     0.219520000000     0.449580000000     0.687360000000     0          
Zr7      Zr     0.284930000000     0.509410000000     0.686360000000     0          
O1       O      0.030500000000     0.691000000000     0.207900000000     0          
O2       O      0.032200000000     0.754400000000     0.293800000000     0          
O7       O      0.231550000000     0.503240000000     0.678600000000     0          
O10      O      0.270020000000     0.459000000000     0.694500000000     0          
O13      O      0.087010000000     0.721900000000     0.179300000000     0          
O14      O      0.048140000000     0.723000000000     0.123200000000     0          
O16      O      0.220000000000     0.452800000000     0.609100000000     0          
O17      O      0.282100000000     0.508400000000     0.608200000000     0          
O19      O      0.218350000000     0.568980000000     0.798000000000     0          
O20      O      0.265820000000     0.561100000000     0.837300000000     0          
O21      O      0.260220000000     0.901580000000     0.841200000000     0          
O22      O      0.214170000000     0.890390000000     0.799000000000     0          
O25      O      0.169010000000     0.523490000000     0.797000000000     0          
O26      O      0.171740000000     0.472960000000     0.834800000000     0          
O29      O      0.835660000000     0.935180000000     0.701800000000     0          
O30      O      0.830250000000     0.982500000000     0.659600000000     0          
C1       C      0.180200000000     0.728000000000     0.991500000000     0          
C2       C      0.192400000000     0.697500000000     0.972100000000     0          
C3       C      0.213500000000     0.699400000000     0.933100000000     0          
C4       C      0.223900000000     0.730000000000     0.913400000000     0          
C5       C      0.212000000000     0.760000000000     0.933400000000     0          
C6       C      0.191000000000     0.758500000000     0.973300000000     0          
C7       C      0.154400000000     0.726500000000     0.030200000000     0          
C8       C      0.161800000000     0.727500000000     0.078000000000     0          
H1       H      0.184310000000     0.729600000000     0.087490000000     0          
C9       C      0.138000000000     0.725500000000     0.112300000000     0          
H2       H      0.144040000000     0.724900000000     0.145150000000     0          
C10      C      0.104200000000     0.724400000000     0.098700000000     0          
C11      C      0.096400000000     0.724400000000     0.051100000000     0          
H3       H      0.073860000000     0.723000000000     0.041560000000     0          
C12      C      0.120500000000     0.726300000000     0.017100000000     0          
H4       H      0.114560000000     0.727480000000     0.984280000000     0          
C13      C      0.077700000000     0.722100000000     0.136400000000     0          
C14      C      0.180200000000     0.664200000000     0.990500000000     0          
H5       H      0.195230000000     0.646340000000     0.979970000000     0          
H6       H      0.179420000000     0.664660000000     0.025490000000     0          
H7       H      0.157910000000     0.659830000000     0.977920000000     0          
C15      C      0.222200000000     0.668000000000     0.906800000000     0          
C16      C      0.250000000000     0.648800000000     0.915900000000     0          
H8       H      0.264970000000     0.655280000000     0.940360000000     0          
C17      C      0.256000000000     0.619800000000     0.888900000000     0          
H9       H      0.275920000000     0.607720000000     0.894750000000     0          
C18      C      0.235200000000     0.608100000000     0.855100000000     0          
C19      C      0.206400000000     0.627000000000     0.845000000000     0          
H10      H      0.191030000000     0.619890000000     0.821270000000     0          
C20      C      0.201000000000     0.657200000000     0.871300000000     0          
H11      H      0.182040000000     0.670350000000     0.864080000000     0          
C21      C      0.240600000000     0.576400000000     0.827400000000     0          
C22      C      0.247100000000     0.731200000000     0.871700000000     0          
H12      H      0.235430000000     0.740040000000     0.843660000000     0          
H13      H      0.265910000000     0.745770000000     0.879330000000     0          
H14      H      0.255170000000     0.708490000000     0.864710000000     0          
C23      C      0.219200000000     0.793500000000     0.909800000000     0          
C24      C      0.199200000000     0.801400000000     0.871700000000     0          
H15      H      0.181630000000     0.786710000000     0.862940000000     0          
C25      C      0.204500000000     0.830900000000     0.845700000000     0          
H16      H      0.190820000000     0.835960000000     0.819000000000     0          
C26      C      0.229300000000     0.852600000000     0.858600000000     0          
C27      C      0.250000000000     0.842700000000     0.896800000000     0          
H17      H      0.268150000000     0.856540000000     0.905550000000     0          
C28      C      0.244200000000     0.813200000000     0.921800000000     0          
H18      H      0.258330000000     0.807140000000     0.947610000000     0          
C29      C      0.234800000000     0.883300000000     0.830700000000     0          
C30      C      0.178000000000     0.790400000000     0.995700000000     0          
H19      H      0.185040000000     0.809710000000     0.976570000000     0          
H20      H      0.153720000000     0.789590000000     0.996830000000     0          
H21      H      0.186740000000     0.792530000000     0.028240000000     0          
C32      C      0.029800000000     0.546000000000     0.952000000000     0          
C33      C      0.029900000000     0.527500000000     0.908600000000     0          
C42      C      0.063300000000     0.554800000000     0.974700000000     0          
H26      H      0.080560000000     0.554460000000     0.950100000000     0          
H27      H      0.062080000000     0.577240000000     0.988950000000     0          
H28      H      0.068560000000     0.538320000000     0.999550000000     0          
C43      C      0.062200000000     0.519200000000     0.885100000000     0          
C44      C      0.079000000000     0.489700000000     0.896300000000     0          
H29      H      0.069400000000     0.473860000000     0.917610000000     0          
C45      C      0.109300000000     0.483700000000     0.876400000000     0          
H30      H      0.120730000000     0.463580000000     0.884060000000     0          
C46      C      0.124000000000     0.506700000000     0.844700000000     0          
C47      C      0.106500000000     0.535700000000     0.834200000000     0          
H31      H      0.115590000000     0.551720000000     0.812630000000     0          
C48      C      0.077300000000     0.541300000000     0.854100000000     0          
H32      H      0.066100000000     0.561590000000     0.846540000000     0          
C49      C      0.157700000000     0.500200000000     0.823700000000     0          
C52      C      0.969900000000     0.907000000000     0.539200000000     0          
C53      C      0.970500000000     0.926200000000     0.579700000000     0          
C62      C      0.937900000000     0.894000000000     0.517600000000     0          
H37      H      0.919940000000     0.896080000000     0.541030000000     0          
H38      H      0.932390000000     0.907150000000     0.489050000000     0          
H39      H      0.940570000000     0.870350000000     0.508720000000     0          
C63      C      0.937800000000     0.934400000000     0.603300000000     0          
C64      C      0.919500000000     0.962300000000     0.590400000000     0          
H40      H      0.927440000000     0.976060000000     0.565040000000     0          
C65      C      0.889600000000     0.971200000000     0.613300000000     0          
H41      H      0.878400000000     0.991550000000     0.606280000000     0          
C66      C      0.877300000000     0.948000000000     0.647400000000     0          
C67      C      0.895900000000     0.921300000000     0.660300000000     0          
H42      H      0.888470000000     0.906760000000     0.685060000000     0          
C68      C      0.925300000000     0.915100000000     0.637900000000     0          
H43      H      0.937640000000     0.895940000000     0.647470000000     0          
C69      C      0.845000000000     0.955900000000     0.670500000000     0          
H44?     H      0.977110000000     0.962540000000     0.654280000000     0          
H45?     H      0.011030000000     0.945240000000     0.670760000000     0          
H46?     H      0.011850000000     0.978620000000     0.638950000000     0          
H47?     H      0.977110000000     0.497610000000     0.827090000000     0          
H48?     H      0.011100000000     0.516080000000     0.813830000000     0          
H49?     H      0.011790000000     0.480210000000     0.839590000000     0          


