data_FIFFUX

_audit_creation_method RASPA-1.0
_audit_creation_date 2020-11-2
_audit_author_name 'Rocio Bueno-Perez'

_cell_length_a    39.3875
_cell_length_b    39.3875
_cell_length_c    16.4829
_cell_angle_alpha 90
_cell_angle_beta  90
_cell_angle_gamma 120
_cell_volume      22145.3

_symmetry_cell_setting          hexagonal
_symmetry_space_group_name_Hall 'P 1'
_symmetry_space_group_name_H-M  'P 1'
_symmetry_Int_Tables_number     1

_symmetry_equiv_pos_as_xyz 'x,y,z'

loop_
_atom_site_label
_atom_site_type_symbol
_atom_site_fract_x
_atom_site_fract_y
_atom_site_fract_z
_atom_site_charge
O1       O      0.465980000000     0.408230000000     0.848500000000     0          
O2       O      0.517440000000     0.412970000000     0.915900000000     0          
C1       C      0.491300000000     0.398500000000     0.866300000000     0          
C2       C      0.490300000000     0.366400000000     0.817900000000     0          
C3       C      0.459200000000     0.345600000000     0.760200000000     0          
H1       H      0.438400000000     0.351200000000     0.755400000000     0          
C4       C      0.460000000000     0.316900000000     0.711200000000     0          
H2       H      0.440800000000     0.304400000000     0.670000000000     0          
C5       C      0.488200000000     0.306500000000     0.722100000000     0          
C6       C      0.516900000000     0.325600000000     0.780000000000     0          
H3       H      0.536500000000     0.318600000000     0.787900000000     0          
C7       C      0.516800000000     0.354600000000     0.825900000000     0          
H4       H      0.536700000000     0.367100000000     0.865900000000     0          
C8       C      0.488900000000     0.275200000000     0.673100000000     0          
C9       C      0.489900000000     0.276500000000     0.585500000000     0          
C12      C      0.490400000000     0.307200000000     0.538700000000     0          
H6       H      0.490800000000     0.328500000000     0.566300000000     0          
O7?      O      0.500900000000     0.457700000000     0.891600000000     0          
Zr1      Zr     0.455260000000     0.455260000000     0.893350000000     0          
Zr2      Zr     0.535980000000     0.464020000000     0.000000000000     0          
O5       O      0.431400000000     0.467990000000     0.000000000000     0          
C10      C      0.487000000000     0.243500000000     0.543200000000     0          
C11      C      0.488500000000     0.244250000000     0.711900000000     0          
H5       H      0.487800000000     0.243900000000     0.769600000000     0          
O6       O      0.517520000000     0.482480000000     0.895200000000     0          
O1       O      0.057750000000     0.465980000000     0.848500000000     0          
O2       O      0.104470000000     0.517440000000     0.915900000000     0          
C1       C      0.092800000000     0.491300000000     0.866300000000     0          
C2       C      0.123900000000     0.490300000000     0.817900000000     0          
C3       C      0.113600000000     0.459200000000     0.760200000000     0          
H1       H      0.087200000000     0.438400000000     0.755400000000     0          
C4       C      0.143100000000     0.460000000000     0.711200000000     0          
H2       H      0.136400000000     0.440800000000     0.670000000000     0          
C5       C      0.181700000000     0.488200000000     0.722100000000     0          
C6       C      0.191300000000     0.516900000000     0.780000000000     0          
H3       H      0.217900000000     0.536500000000     0.787900000000     0          
C7       C      0.162200000000     0.516800000000     0.825900000000     0          
H4       H      0.169600000000     0.536700000000     0.865900000000     0          
C8       C      0.213700000000     0.488900000000     0.673100000000     0          
C9       C      0.213400000000     0.489900000000     0.585500000000     0          
C12      C      0.183200000000     0.490400000000     0.538700000000     0          
H6       H      0.162300000000     0.490800000000     0.566300000000     0          
O7?      O      0.043200000000     0.500900000000     0.891600000000     0          
Zr1      Zr     0.000000000000     0.455260000000     0.893350000000     0          
Zr2      Zr     0.071960000000     0.535980000000     0.000000000000     0          
O5       O      0.963410000000     0.431400000000     0.000000000000     0          
C10      C      0.243500000000     0.487000000000     0.543200000000     0          
C11      C      0.244250000000     0.488500000000     0.711900000000     0          
H5       H      0.243900000000     0.487800000000     0.769600000000     0          
O6       O      0.035040000000     0.517520000000     0.895200000000     0          
O1       O      0.591770000000     0.057750000000     0.848500000000     0          
O2       O      0.587030000000     0.104470000000     0.915900000000     0          
C1       C      0.601500000000     0.092800000000     0.866300000000     0          
C2       C      0.633600000000     0.123900000000     0.817900000000     0          
C3       C      0.654400000000     0.113600000000     0.760200000000     0          
H1       H      0.648800000000     0.087200000000     0.755400000000     0          
C4       C      0.683100000000     0.143100000000     0.711200000000     0          
H2       H      0.695600000000     0.136400000000     0.670000000000     0          
C5       C      0.693500000000     0.181700000000     0.722100000000     0          
C6       C      0.674400000000     0.191300000000     0.780000000000     0          
H3       H      0.681400000000     0.217900000000     0.787900000000     0          
C7       C      0.645400000000     0.162200000000     0.825900000000     0          
H4       H      0.632900000000     0.169600000000     0.865900000000     0          
C8       C      0.724800000000     0.213700000000     0.673100000000     0          
C9       C      0.723500000000     0.213400000000     0.585500000000     0          
C12      C      0.692800000000     0.183200000000     0.538700000000     0          
H6       H      0.671500000000     0.162300000000     0.566300000000     0          
O7?      O      0.542300000000     0.043200000000     0.891600000000     0          
Zr1      Zr     0.544740000000     0.000000000000     0.893350000000     0          
Zr2      Zr     0.535980000000     0.071960000000     0.000000000000     0          
O5       O      0.532010000000     0.963410000000     0.000000000000     0          
C10      C      0.756500000000     0.243500000000     0.543200000000     0          
C11      C      0.755750000000     0.244250000000     0.711900000000     0          
H5       H      0.756100000000     0.243900000000     0.769600000000     0          
O6       O      0.517520000000     0.035040000000     0.895200000000     0          
O1       O      0.534020000000     0.591770000000     0.848500000000     0          
O2       O      0.482560000000     0.587030000000     0.915900000000     0          
C1       C      0.508700000000     0.601500000000     0.866300000000     0          
C2       C      0.509700000000     0.633600000000     0.817900000000     0          
C3       C      0.540800000000     0.654400000000     0.760200000000     0          
H1       H      0.561600000000     0.648800000000     0.755400000000     0          
C4       C      0.540000000000     0.683100000000     0.711200000000     0          
H2       H      0.559200000000     0.695600000000     0.670000000000     0          
C5       C      0.511800000000     0.693500000000     0.722100000000     0          
C6       C      0.483100000000     0.674400000000     0.780000000000     0          
H3       H      0.463500000000     0.681400000000     0.787900000000     0          
C7       C      0.483200000000     0.645400000000     0.825900000000     0          
H4       H      0.463300000000     0.632900000000     0.865900000000     0          
C8       C      0.511100000000     0.724800000000     0.673100000000     0          
C9       C      0.510100000000     0.723500000000     0.585500000000     0          
C12      C      0.509600000000     0.692800000000     0.538700000000     0          
H6       H      0.509200000000     0.671500000000     0.566300000000     0          
O7?      O      0.499100000000     0.542300000000     0.891600000000     0          
Zr1      Zr     0.544740000000     0.544740000000     0.893350000000     0          
Zr2      Zr     0.464020000000     0.535980000000     0.000000000000     0          
O5       O      0.568600000000     0.532010000000     0.000000000000     0          
C10      C      0.513000000000     0.756500000000     0.543200000000     0          
C11      C      0.511500000000     0.755750000000     0.711900000000     0          
H5       H      0.512200000000     0.756100000000     0.769600000000     0          
O6       O      0.482480000000     0.517520000000     0.895200000000     0          
O1       O      0.942250000000     0.534020000000     0.848500000000     0          
O2       O      0.895530000000     0.482560000000     0.915900000000     0          
C1       C      0.907200000000     0.508700000000     0.866300000000     0          
C2       C      0.876100000000     0.509700000000     0.817900000000     0          
C3       C      0.886400000000     0.540800000000     0.760200000000     0          
H1       H      0.912800000000     0.561600000000     0.755400000000     0          
C4       C      0.856900000000     0.540000000000     0.711200000000     0          
H2       H      0.863600000000     0.559200000000     0.670000000000     0          
C5       C      0.818300000000     0.511800000000     0.722100000000     0          
C6       C      0.808700000000     0.483100000000     0.780000000000     0          
H3       H      0.782100000000     0.463500000000     0.787900000000     0          
C7       C      0.837800000000     0.483200000000     0.825900000000     0          
H4       H      0.830400000000     0.463300000000     0.865900000000     0          
C8       C      0.786300000000     0.511100000000     0.673100000000     0          
C9       C      0.786600000000     0.510100000000     0.585500000000     0          
C12      C      0.816800000000     0.509600000000     0.538700000000     0          
H6       H      0.837700000000     0.509200000000     0.566300000000     0          
O7?      O      0.956800000000     0.499100000000     0.891600000000     0          
Zr1      Zr     0.000000000000     0.544740000000     0.893350000000     0          
Zr2      Zr     0.928040000000     0.464020000000     0.000000000000     0          
O5       O      0.036590000000     0.568600000000     0.000000000000     0          
C10      C      0.756500000000     0.513000000000     0.543200000000     0          
C11      C      0.755750000000     0.511500000000     0.711900000000     0          
H5       H      0.756100000000     0.512200000000     0.769600000000     0          
O6       O      0.964960000000     0.482480000000     0.895200000000     0          
O1       O      0.408230000000     0.942250000000     0.848500000000     0          
O2       O      0.412970000000     0.895530000000     0.915900000000     0          
C1       C      0.398500000000     0.907200000000     0.866300000000     0          
C2       C      0.366400000000     0.876100000000     0.817900000000     0          
C3       C      0.345600000000     0.886400000000     0.760200000000     0          
H1       H      0.351200000000     0.912800000000     0.755400000000     0          
C4       C      0.316900000000     0.856900000000     0.711200000000     0          
H2       H      0.304400000000     0.863600000000     0.670000000000     0          
C5       C      0.306500000000     0.818300000000     0.722100000000     0          
C6       C      0.325600000000     0.808700000000     0.780000000000     0          
H3       H      0.318600000000     0.782100000000     0.787900000000     0          
C7       C      0.354600000000     0.837800000000     0.825900000000     0          
H4       H      0.367100000000     0.830400000000     0.865900000000     0          
C8       C      0.275200000000     0.786300000000     0.673100000000     0          
C9       C      0.276500000000     0.786600000000     0.585500000000     0          
C12      C      0.307200000000     0.816800000000     0.538700000000     0          
H6       H      0.328500000000     0.837700000000     0.566300000000     0          
O7?      O      0.457700000000     0.956800000000     0.891600000000     0          
Zr1      Zr     0.455260000000     0.000000000000     0.893350000000     0          
Zr2      Zr     0.464020000000     0.928040000000     0.000000000000     0          
O5       O      0.467990000000     0.036590000000     0.000000000000     0          
C10      C      0.243500000000     0.756500000000     0.543200000000     0          
C11      C      0.244250000000     0.755750000000     0.711900000000     0          
H5       H      0.243900000000     0.756100000000     0.769600000000     0          
O6       O      0.482480000000     0.964960000000     0.895200000000     0          
O1       O      0.591770000000     0.534020000000     0.151500000000     0          
O2       O      0.587030000000     0.482560000000     0.084100000000     0          
C1       C      0.601500000000     0.508700000000     0.133700000000     0          
C2       C      0.633600000000     0.509700000000     0.182100000000     0          
C3       C      0.654400000000     0.540800000000     0.239800000000     0          
H1       H      0.648800000000     0.561600000000     0.244600000000     0          
C4       C      0.683100000000     0.540000000000     0.288800000000     0          
H2       H      0.695600000000     0.559200000000     0.330000000000     0          
C5       C      0.693500000000     0.511800000000     0.277900000000     0          
C6       C      0.674400000000     0.483100000000     0.220000000000     0          
H3       H      0.681400000000     0.463500000000     0.212100000000     0          
C7       C      0.645400000000     0.483200000000     0.174100000000     0          
H4       H      0.632900000000     0.463300000000     0.134100000000     0          
C8       C      0.724800000000     0.511100000000     0.326900000000     0          
C9       C      0.723500000000     0.510100000000     0.414500000000     0          
C12      C      0.692800000000     0.509600000000     0.461300000000     0          
H6       H      0.671500000000     0.509200000000     0.433700000000     0          
O7?      O      0.542300000000     0.499100000000     0.108400000000     0          
Zr1      Zr     0.544740000000     0.544740000000     0.106650000000     0          
O5       O      0.532010000000     0.568600000000     0.000000000000     0          
C10      C      0.756500000000     0.513000000000     0.456800000000     0          
C11      C      0.755750000000     0.511500000000     0.288100000000     0          
H5       H      0.756100000000     0.512200000000     0.230400000000     0          
O6       O      0.517520000000     0.482480000000     0.104800000000     0          
O1       O      0.057750000000     0.591770000000     0.151500000000     0          
O2       O      0.104470000000     0.587030000000     0.084100000000     0          
C1       C      0.092800000000     0.601500000000     0.133700000000     0          
C2       C      0.123900000000     0.633600000000     0.182100000000     0          
C3       C      0.113600000000     0.654400000000     0.239800000000     0          
H1       H      0.087200000000     0.648800000000     0.244600000000     0          
C4       C      0.143100000000     0.683100000000     0.288800000000     0          
H2       H      0.136400000000     0.695600000000     0.330000000000     0          
C5       C      0.181700000000     0.693500000000     0.277900000000     0          
C6       C      0.191300000000     0.674400000000     0.220000000000     0          
H3       H      0.217900000000     0.681400000000     0.212100000000     0          
C7       C      0.162200000000     0.645400000000     0.174100000000     0          
H4       H      0.169600000000     0.632900000000     0.134100000000     0          
C8       C      0.213700000000     0.724800000000     0.326900000000     0          
C9       C      0.213400000000     0.723500000000     0.414500000000     0          
C12      C      0.183200000000     0.692800000000     0.461300000000     0          
H6       H      0.162300000000     0.671500000000     0.433700000000     0          
O7?      O      0.043200000000     0.542300000000     0.108400000000     0          
Zr1      Zr     0.000000000000     0.544740000000     0.106650000000     0          
O5       O      0.963410000000     0.532010000000     0.000000000000     0          
C10      C      0.243500000000     0.756500000000     0.456800000000     0          
C11      C      0.244250000000     0.755750000000     0.288100000000     0          
H5       H      0.243900000000     0.756100000000     0.230400000000     0          
O6       O      0.035040000000     0.517520000000     0.104800000000     0          
O1       O      0.465980000000     0.057750000000     0.151500000000     0          
O2       O      0.517440000000     0.104470000000     0.084100000000     0          
C1       C      0.491300000000     0.092800000000     0.133700000000     0          
C2       C      0.490300000000     0.123900000000     0.182100000000     0          
C3       C      0.459200000000     0.113600000000     0.239800000000     0          
H1       H      0.438400000000     0.087200000000     0.244600000000     0          
C4       C      0.460000000000     0.143100000000     0.288800000000     0          
H2       H      0.440800000000     0.136400000000     0.330000000000     0          
C5       C      0.488200000000     0.181700000000     0.277900000000     0          
C6       C      0.516900000000     0.191300000000     0.220000000000     0          
H3       H      0.536500000000     0.217900000000     0.212100000000     0          
C7       C      0.516800000000     0.162200000000     0.174100000000     0          
H4       H      0.536700000000     0.169600000000     0.134100000000     0          
C8       C      0.488900000000     0.213700000000     0.326900000000     0          
C9       C      0.489900000000     0.213400000000     0.414500000000     0          
C12      C      0.490400000000     0.183200000000     0.461300000000     0          
H6       H      0.490800000000     0.162300000000     0.433700000000     0          
O7?      O      0.500900000000     0.043200000000     0.108400000000     0          
Zr1      Zr     0.455260000000     0.000000000000     0.106650000000     0          
O5       O      0.431400000000     0.963410000000     0.000000000000     0          
C10      C      0.487000000000     0.243500000000     0.456800000000     0          
C11      C      0.488500000000     0.244250000000     0.288100000000     0          
H5       H      0.487800000000     0.243900000000     0.230400000000     0          
O6       O      0.517520000000     0.035040000000     0.104800000000     0          
O1       O      0.408230000000     0.465980000000     0.151500000000     0          
O2       O      0.412970000000     0.517440000000     0.084100000000     0          
C1       C      0.398500000000     0.491300000000     0.133700000000     0          
C2       C      0.366400000000     0.490300000000     0.182100000000     0          
C3       C      0.345600000000     0.459200000000     0.239800000000     0          
H1       H      0.351200000000     0.438400000000     0.244600000000     0          
C4       C      0.316900000000     0.460000000000     0.288800000000     0          
H2       H      0.304400000000     0.440800000000     0.330000000000     0          
C5       C      0.306500000000     0.488200000000     0.277900000000     0          
C6       C      0.325600000000     0.516900000000     0.220000000000     0          
H3       H      0.318600000000     0.536500000000     0.212100000000     0          
C7       C      0.354600000000     0.516800000000     0.174100000000     0          
H4       H      0.367100000000     0.536700000000     0.134100000000     0          
C8       C      0.275200000000     0.488900000000     0.326900000000     0          
C9       C      0.276500000000     0.489900000000     0.414500000000     0          
C12      C      0.307200000000     0.490400000000     0.461300000000     0          
H6       H      0.328500000000     0.490800000000     0.433700000000     0          
O7?      O      0.457700000000     0.500900000000     0.108400000000     0          
Zr1      Zr     0.455260000000     0.455260000000     0.106650000000     0          
O5       O      0.467990000000     0.431400000000     0.000000000000     0          
C10      C      0.243500000000     0.487000000000     0.456800000000     0          
C11      C      0.244250000000     0.488500000000     0.288100000000     0          
H5       H      0.243900000000     0.487800000000     0.230400000000     0          
O6       O      0.482480000000     0.517520000000     0.104800000000     0          
O1       O      0.942250000000     0.408230000000     0.151500000000     0          
O2       O      0.895530000000     0.412970000000     0.084100000000     0          
C1       C      0.907200000000     0.398500000000     0.133700000000     0          
C2       C      0.876100000000     0.366400000000     0.182100000000     0          
C3       C      0.886400000000     0.345600000000     0.239800000000     0          
H1       H      0.912800000000     0.351200000000     0.244600000000     0          
C4       C      0.856900000000     0.316900000000     0.288800000000     0          
H2       H      0.863600000000     0.304400000000     0.330000000000     0          
C5       C      0.818300000000     0.306500000000     0.277900000000     0          
C6       C      0.808700000000     0.325600000000     0.220000000000     0          
H3       H      0.782100000000     0.318600000000     0.212100000000     0          
C7       C      0.837800000000     0.354600000000     0.174100000000     0          
H4       H      0.830400000000     0.367100000000     0.134100000000     0          
C8       C      0.786300000000     0.275200000000     0.326900000000     0          
C9       C      0.786600000000     0.276500000000     0.414500000000     0          
C12      C      0.816800000000     0.307200000000     0.461300000000     0          
H6       H      0.837700000000     0.328500000000     0.433700000000     0          
O7?      O      0.956800000000     0.457700000000     0.108400000000     0          
Zr1      Zr     0.000000000000     0.455260000000     0.106650000000     0          
O5       O      0.036590000000     0.467990000000     0.000000000000     0          
C10      C      0.756500000000     0.243500000000     0.456800000000     0          
C11      C      0.755750000000     0.244250000000     0.288100000000     0          
H5       H      0.756100000000     0.243900000000     0.230400000000     0          
O6       O      0.964960000000     0.482480000000     0.104800000000     0          
O1       O      0.534020000000     0.942250000000     0.151500000000     0          
O2       O      0.482560000000     0.895530000000     0.084100000000     0          
C1       C      0.508700000000     0.907200000000     0.133700000000     0          
C2       C      0.509700000000     0.876100000000     0.182100000000     0          
C3       C      0.540800000000     0.886400000000     0.239800000000     0          
H1       H      0.561600000000     0.912800000000     0.244600000000     0          
C4       C      0.540000000000     0.856900000000     0.288800000000     0          
H2       H      0.559200000000     0.863600000000     0.330000000000     0          
C5       C      0.511800000000     0.818300000000     0.277900000000     0          
C6       C      0.483100000000     0.808700000000     0.220000000000     0          
H3       H      0.463500000000     0.782100000000     0.212100000000     0          
C7       C      0.483200000000     0.837800000000     0.174100000000     0          
H4       H      0.463300000000     0.830400000000     0.134100000000     0          
C8       C      0.511100000000     0.786300000000     0.326900000000     0          
C9       C      0.510100000000     0.786600000000     0.414500000000     0          
C12      C      0.509600000000     0.816800000000     0.461300000000     0          
H6       H      0.509200000000     0.837700000000     0.433700000000     0          
O7?      O      0.499100000000     0.956800000000     0.108400000000     0          
Zr1      Zr     0.544740000000     0.000000000000     0.106650000000     0          
O5       O      0.568600000000     0.036590000000     0.000000000000     0          
C10      C      0.513000000000     0.756500000000     0.456800000000     0          
C11      C      0.511500000000     0.755750000000     0.288100000000     0          
H5       H      0.512200000000     0.756100000000     0.230400000000     0          
O6       O      0.482480000000     0.964960000000     0.104800000000     0          
O1       O      0.534020000000     0.591770000000     0.151500000000     0          
O2       O      0.482560000000     0.587030000000     0.084100000000     0          
C1       C      0.508700000000     0.601500000000     0.133700000000     0          
C2       C      0.509700000000     0.633600000000     0.182100000000     0          
C3       C      0.540800000000     0.654400000000     0.239800000000     0          
H1       H      0.561600000000     0.648800000000     0.244600000000     0          
C4       C      0.540000000000     0.683100000000     0.288800000000     0          
H2       H      0.559200000000     0.695600000000     0.330000000000     0          
C5       C      0.511800000000     0.693500000000     0.277900000000     0          
C6       C      0.483100000000     0.674400000000     0.220000000000     0          
H3       H      0.463500000000     0.681400000000     0.212100000000     0          
C7       C      0.483200000000     0.645400000000     0.174100000000     0          
H4       H      0.463300000000     0.632900000000     0.134100000000     0          
C8       C      0.511100000000     0.724800000000     0.326900000000     0          
C9       C      0.510100000000     0.723500000000     0.414500000000     0          
C12      C      0.509600000000     0.692800000000     0.461300000000     0          
H6       H      0.509200000000     0.671500000000     0.433700000000     0          
O7?      O      0.499100000000     0.542300000000     0.108400000000     0          
O1       O      0.942250000000     0.534020000000     0.151500000000     0          
O2       O      0.895530000000     0.482560000000     0.084100000000     0          
C1       C      0.907200000000     0.508700000000     0.133700000000     0          
C2       C      0.876100000000     0.509700000000     0.182100000000     0          
C3       C      0.886400000000     0.540800000000     0.239800000000     0          
H1       H      0.912800000000     0.561600000000     0.244600000000     0          
C4       C      0.856900000000     0.540000000000     0.288800000000     0          
H2       H      0.863600000000     0.559200000000     0.330000000000     0          
C5       C      0.818300000000     0.511800000000     0.277900000000     0          
C6       C      0.808700000000     0.483100000000     0.220000000000     0          
H3       H      0.782100000000     0.463500000000     0.212100000000     0          
C7       C      0.837800000000     0.483200000000     0.174100000000     0          
H4       H      0.830400000000     0.463300000000     0.134100000000     0          
C8       C      0.786300000000     0.511100000000     0.326900000000     0          
C9       C      0.786600000000     0.510100000000     0.414500000000     0          
C12      C      0.816800000000     0.509600000000     0.461300000000     0          
H6       H      0.837700000000     0.509200000000     0.433700000000     0          
O7?      O      0.956800000000     0.499100000000     0.108400000000     0          
O1       O      0.408230000000     0.942250000000     0.151500000000     0          
O2       O      0.412970000000     0.895530000000     0.084100000000     0          
C1       C      0.398500000000     0.907200000000     0.133700000000     0          
C2       C      0.366400000000     0.876100000000     0.182100000000     0          
C3       C      0.345600000000     0.886400000000     0.239800000000     0          
H1       H      0.351200000000     0.912800000000     0.244600000000     0          
C4       C      0.316900000000     0.856900000000     0.288800000000     0          
H2       H      0.304400000000     0.863600000000     0.330000000000     0          
C5       C      0.306500000000     0.818300000000     0.277900000000     0          
C6       C      0.325600000000     0.808700000000     0.220000000000     0          
H3       H      0.318600000000     0.782100000000     0.212100000000     0          
C7       C      0.354600000000     0.837800000000     0.174100000000     0          
H4       H      0.367100000000     0.830400000000     0.134100000000     0          
C8       C      0.275200000000     0.786300000000     0.326900000000     0          
C9       C      0.276500000000     0.786600000000     0.414500000000     0          
C12      C      0.307200000000     0.816800000000     0.461300000000     0          
H6       H      0.328500000000     0.837700000000     0.433700000000     0          
O7?      O      0.457700000000     0.956800000000     0.108400000000     0          
O1       O      0.465980000000     0.408230000000     0.151500000000     0          
O2       O      0.517440000000     0.412970000000     0.084100000000     0          
C1       C      0.491300000000     0.398500000000     0.133700000000     0          
C2       C      0.490300000000     0.366400000000     0.182100000000     0          
C3       C      0.459200000000     0.345600000000     0.239800000000     0          
H1       H      0.438400000000     0.351200000000     0.244600000000     0          
C4       C      0.460000000000     0.316900000000     0.288800000000     0          
H2       H      0.440800000000     0.304400000000     0.330000000000     0          
C5       C      0.488200000000     0.306500000000     0.277900000000     0          
C6       C      0.516900000000     0.325600000000     0.220000000000     0          
H3       H      0.536500000000     0.318600000000     0.212100000000     0          
C7       C      0.516800000000     0.354600000000     0.174100000000     0          
H4       H      0.536700000000     0.367100000000     0.134100000000     0          
C8       C      0.488900000000     0.275200000000     0.326900000000     0          
C9       C      0.489900000000     0.276500000000     0.414500000000     0          
C12      C      0.490400000000     0.307200000000     0.461300000000     0          
H6       H      0.490800000000     0.328500000000     0.433700000000     0          
O7?      O      0.500900000000     0.457700000000     0.108400000000     0          
O1       O      0.057750000000     0.465980000000     0.151500000000     0          
O2       O      0.104470000000     0.517440000000     0.084100000000     0          
C1       C      0.092800000000     0.491300000000     0.133700000000     0          
C2       C      0.123900000000     0.490300000000     0.182100000000     0          
C3       C      0.113600000000     0.459200000000     0.239800000000     0          
H1       H      0.087200000000     0.438400000000     0.244600000000     0          
C4       C      0.143100000000     0.460000000000     0.288800000000     0          
H2       H      0.136400000000     0.440800000000     0.330000000000     0          
C5       C      0.181700000000     0.488200000000     0.277900000000     0          
C6       C      0.191300000000     0.516900000000     0.220000000000     0          
H3       H      0.217900000000     0.536500000000     0.212100000000     0          
C7       C      0.162200000000     0.516800000000     0.174100000000     0          
H4       H      0.169600000000     0.536700000000     0.134100000000     0          
C8       C      0.213700000000     0.488900000000     0.326900000000     0          
C9       C      0.213400000000     0.489900000000     0.414500000000     0          
C12      C      0.183200000000     0.490400000000     0.461300000000     0          
H6       H      0.162300000000     0.490800000000     0.433700000000     0          
O7?      O      0.043200000000     0.500900000000     0.108400000000     0          
O1       O      0.591770000000     0.057750000000     0.151500000000     0          
O2       O      0.587030000000     0.104470000000     0.084100000000     0          
C1       C      0.601500000000     0.092800000000     0.133700000000     0          
C2       C      0.633600000000     0.123900000000     0.182100000000     0          
C3       C      0.654400000000     0.113600000000     0.239800000000     0          
H1       H      0.648800000000     0.087200000000     0.244600000000     0          
C4       C      0.683100000000     0.143100000000     0.288800000000     0          
H2       H      0.695600000000     0.136400000000     0.330000000000     0          
C5       C      0.693500000000     0.181700000000     0.277900000000     0          
C6       C      0.674400000000     0.191300000000     0.220000000000     0          
H3       H      0.681400000000     0.217900000000     0.212100000000     0          
C7       C      0.645400000000     0.162200000000     0.174100000000     0          
H4       H      0.632900000000     0.169600000000     0.134100000000     0          
C8       C      0.724800000000     0.213700000000     0.326900000000     0          
C9       C      0.723500000000     0.213400000000     0.414500000000     0          
C12      C      0.692800000000     0.183200000000     0.461300000000     0          
H6       H      0.671500000000     0.162300000000     0.433700000000     0          
O7?      O      0.542300000000     0.043200000000     0.108400000000     0          
O1       O      0.408230000000     0.465980000000     0.848500000000     0          
O2       O      0.412970000000     0.517440000000     0.915900000000     0          
C1       C      0.398500000000     0.491300000000     0.866300000000     0          
C2       C      0.366400000000     0.490300000000     0.817900000000     0          
C3       C      0.345600000000     0.459200000000     0.760200000000     0          
H1       H      0.351200000000     0.438400000000     0.755400000000     0          
C4       C      0.316900000000     0.460000000000     0.711200000000     0          
H2       H      0.304400000000     0.440800000000     0.670000000000     0          
C5       C      0.306500000000     0.488200000000     0.722100000000     0          
C6       C      0.325600000000     0.516900000000     0.780000000000     0          
H3       H      0.318600000000     0.536500000000     0.787900000000     0          
C7       C      0.354600000000     0.516800000000     0.825900000000     0          
H4       H      0.367100000000     0.536700000000     0.865900000000     0          
C8       C      0.275200000000     0.488900000000     0.673100000000     0          
C9       C      0.276500000000     0.489900000000     0.585500000000     0          
C12      C      0.307200000000     0.490400000000     0.538700000000     0          
H6       H      0.328500000000     0.490800000000     0.566300000000     0          
O7?      O      0.457700000000     0.500900000000     0.891600000000     0          
O1       O      0.942250000000     0.408230000000     0.848500000000     0          
O2       O      0.895530000000     0.412970000000     0.915900000000     0          
C1       C      0.907200000000     0.398500000000     0.866300000000     0          
C2       C      0.876100000000     0.366400000000     0.817900000000     0          
C3       C      0.886400000000     0.345600000000     0.760200000000     0          
H1       H      0.912800000000     0.351200000000     0.755400000000     0          
C4       C      0.856900000000     0.316900000000     0.711200000000     0          
H2       H      0.863600000000     0.304400000000     0.670000000000     0          
C5       C      0.818300000000     0.306500000000     0.722100000000     0          
C6       C      0.808700000000     0.325600000000     0.780000000000     0          
H3       H      0.782100000000     0.318600000000     0.787900000000     0          
C7       C      0.837800000000     0.354600000000     0.825900000000     0          
H4       H      0.830400000000     0.367100000000     0.865900000000     0          
C8       C      0.786300000000     0.275200000000     0.673100000000     0          
C9       C      0.786600000000     0.276500000000     0.585500000000     0          
C12      C      0.816800000000     0.307200000000     0.538700000000     0          
H6       H      0.837700000000     0.328500000000     0.566300000000     0          
O7?      O      0.956800000000     0.457700000000     0.891600000000     0          
O1       O      0.534020000000     0.942250000000     0.848500000000     0          
O2       O      0.482560000000     0.895530000000     0.915900000000     0          
C1       C      0.508700000000     0.907200000000     0.866300000000     0          
C2       C      0.509700000000     0.876100000000     0.817900000000     0          
C3       C      0.540800000000     0.886400000000     0.760200000000     0          
H1       H      0.561600000000     0.912800000000     0.755400000000     0          
C4       C      0.540000000000     0.856900000000     0.711200000000     0          
H2       H      0.559200000000     0.863600000000     0.670000000000     0          
C5       C      0.511800000000     0.818300000000     0.722100000000     0          
C6       C      0.483100000000     0.808700000000     0.780000000000     0          
H3       H      0.463500000000     0.782100000000     0.787900000000     0          
C7       C      0.483200000000     0.837800000000     0.825900000000     0          
H4       H      0.463300000000     0.830400000000     0.865900000000     0          
C8       C      0.511100000000     0.786300000000     0.673100000000     0          
C9       C      0.510100000000     0.786600000000     0.585500000000     0          
C12      C      0.509600000000     0.816800000000     0.538700000000     0          
H6       H      0.509200000000     0.837700000000     0.566300000000     0          
O7?      O      0.499100000000     0.956800000000     0.891600000000     0          
O1       O      0.591770000000     0.534020000000     0.848500000000     0          
O2       O      0.587030000000     0.482560000000     0.915900000000     0          
C1       C      0.601500000000     0.508700000000     0.866300000000     0          
C2       C      0.633600000000     0.509700000000     0.817900000000     0          
C3       C      0.654400000000     0.540800000000     0.760200000000     0          
H1       H      0.648800000000     0.561600000000     0.755400000000     0          
C4       C      0.683100000000     0.540000000000     0.711200000000     0          
H2       H      0.695600000000     0.559200000000     0.670000000000     0          
C5       C      0.693500000000     0.511800000000     0.722100000000     0          
C6       C      0.674400000000     0.483100000000     0.780000000000     0          
H3       H      0.681400000000     0.463500000000     0.787900000000     0          
C7       C      0.645400000000     0.483200000000     0.825900000000     0          
H4       H      0.632900000000     0.463300000000     0.865900000000     0          
C8       C      0.724800000000     0.511100000000     0.673100000000     0          
C9       C      0.723500000000     0.510100000000     0.585500000000     0          
C12      C      0.692800000000     0.509600000000     0.538700000000     0          
H6       H      0.671500000000     0.509200000000     0.566300000000     0          
O7?      O      0.542300000000     0.499100000000     0.891600000000     0          
O1       O      0.057750000000     0.591770000000     0.848500000000     0          
O2       O      0.104470000000     0.587030000000     0.915900000000     0          
C1       C      0.092800000000     0.601500000000     0.866300000000     0          
C2       C      0.123900000000     0.633600000000     0.817900000000     0          
C3       C      0.113600000000     0.654400000000     0.760200000000     0          
H1       H      0.087200000000     0.648800000000     0.755400000000     0          
C4       C      0.143100000000     0.683100000000     0.711200000000     0          
H2       H      0.136400000000     0.695600000000     0.670000000000     0          
C5       C      0.181700000000     0.693500000000     0.722100000000     0          
C6       C      0.191300000000     0.674400000000     0.780000000000     0          
H3       H      0.217900000000     0.681400000000     0.787900000000     0          
C7       C      0.162200000000     0.645400000000     0.825900000000     0          
H4       H      0.169600000000     0.632900000000     0.865900000000     0          
C8       C      0.213700000000     0.724800000000     0.673100000000     0          
C9       C      0.213400000000     0.723500000000     0.585500000000     0          
C12      C      0.183200000000     0.692800000000     0.538700000000     0          
H6       H      0.162300000000     0.671500000000     0.566300000000     0          
O7?      O      0.043200000000     0.542300000000     0.891600000000     0          
O1       O      0.465980000000     0.057750000000     0.848500000000     0          
O2       O      0.517440000000     0.104470000000     0.915900000000     0          
C1       C      0.491300000000     0.092800000000     0.866300000000     0          
C2       C      0.490300000000     0.123900000000     0.817900000000     0          
C3       C      0.459200000000     0.113600000000     0.760200000000     0          
H1       H      0.438400000000     0.087200000000     0.755400000000     0          
C4       C      0.460000000000     0.143100000000     0.711200000000     0          
H2       H      0.440800000000     0.136400000000     0.670000000000     0          
C5       C      0.488200000000     0.181700000000     0.722100000000     0          
C6       C      0.516900000000     0.191300000000     0.780000000000     0          
H3       H      0.536500000000     0.217900000000     0.787900000000     0          
C7       C      0.516800000000     0.162200000000     0.825900000000     0          
H4       H      0.536700000000     0.169600000000     0.865900000000     0          
C8       C      0.488900000000     0.213700000000     0.673100000000     0          
C9       C      0.489900000000     0.213400000000     0.585500000000     0          
C12      C      0.490400000000     0.183200000000     0.538700000000     0          
H6       H      0.490800000000     0.162300000000     0.566300000000     0          
O7?      O      0.500900000000     0.043200000000     0.891600000000     0          


