data_FIPCAL

_audit_creation_method RASPA-1.0
_audit_creation_date 2020-11-2
_audit_author_name 'Rocio Bueno-Perez'

_cell_length_a    29.303
_cell_length_b    29.303
_cell_length_c    29.303
_cell_angle_alpha 90
_cell_angle_beta  90
_cell_angle_gamma 90
_cell_volume      25161.5

_symmetry_cell_setting          cubic
_symmetry_space_group_name_Hall 'P 1'
_symmetry_space_group_name_H-M  'P 1'
_symmetry_Int_Tables_number     1

_symmetry_equiv_pos_as_xyz 'x,y,z'

loop_
_atom_site_label
_atom_site_type_symbol
_atom_site_fract_x
_atom_site_fract_y
_atom_site_fract_z
_atom_site_charge
Zr1      Zr     0.000000000000     0.000000000000     0.083990000000     0          
O1       O      0.041500000000     0.041500000000     0.041500000000     0          
O2       O      0.000000000000     0.065500000000     0.121600000000     0          
C3       C      0.000000000000     0.132000000000     0.185700000000     0          
H1       H      0.000000000000     0.100800000000     0.194200000000     0          
C4       C      0.000000000000     0.163800000000     0.216700000000     0          
H2       H      0.000000000000     0.154700000000     0.247800000000     0          
C1       C      0.000000000000     0.107900000000     0.107900000000     0          
C2       C      0.000000000000     0.143500000000     0.143500000000     0          
N1       N      0.000000000000     0.207700000000     0.207700000000     0          
Co1      Co     0.000000000000     0.250000000000     0.250000000000     0          
O1       O      0.958500000000     0.041500000000     0.041500000000     0          
O2       O      0.934500000000     0.000000000000     0.121600000000     0          
C3       C      0.868000000000     0.000000000000     0.185700000000     0          
H1       H      0.899200000000     0.000000000000     0.194200000000     0          
C4       C      0.836200000000     0.000000000000     0.216700000000     0          
H2       H      0.845300000000     0.000000000000     0.247800000000     0          
C1       C      0.892100000000     0.000000000000     0.107900000000     0          
C2       C      0.856500000000     0.000000000000     0.143500000000     0          
N1       N      0.792300000000     0.000000000000     0.207700000000     0          
Co1      Co     0.750000000000     0.000000000000     0.250000000000     0          
O1       O      0.958500000000     0.958500000000     0.041500000000     0          
O2       O      0.000000000000     0.934500000000     0.121600000000     0          
C3       C      0.000000000000     0.868000000000     0.185700000000     0          
H1       H      0.000000000000     0.899200000000     0.194200000000     0          
C4       C      0.000000000000     0.836200000000     0.216700000000     0          
H2       H      0.000000000000     0.845300000000     0.247800000000     0          
C1       C      0.000000000000     0.892100000000     0.107900000000     0          
C2       C      0.000000000000     0.856500000000     0.143500000000     0          
N1       N      0.000000000000     0.792300000000     0.207700000000     0          
Co1      Co     0.000000000000     0.750000000000     0.250000000000     0          
O1       O      0.041500000000     0.958500000000     0.041500000000     0          
O2       O      0.065500000000     0.000000000000     0.121600000000     0          
C3       C      0.132000000000     0.000000000000     0.185700000000     0          
H1       H      0.100800000000     0.000000000000     0.194200000000     0          
C4       C      0.163800000000     0.000000000000     0.216700000000     0          
H2       H      0.154700000000     0.000000000000     0.247800000000     0          
C1       C      0.107900000000     0.000000000000     0.107900000000     0          
C2       C      0.143500000000     0.000000000000     0.143500000000     0          
N1       N      0.207700000000     0.000000000000     0.207700000000     0          
Co1      Co     0.250000000000     0.000000000000     0.250000000000     0          
Zr1      Zr     0.000000000000     0.000000000000     0.916010000000     0          
O1       O      0.041500000000     0.958500000000     0.958500000000     0          
O2       O      0.000000000000     0.934500000000     0.878400000000     0          
C3       C      0.000000000000     0.868000000000     0.814300000000     0          
H1       H      0.000000000000     0.899200000000     0.805800000000     0          
C4       C      0.000000000000     0.836200000000     0.783300000000     0          
H2       H      0.000000000000     0.845300000000     0.752200000000     0          
C1       C      0.000000000000     0.892100000000     0.892100000000     0          
C2       C      0.000000000000     0.856500000000     0.856500000000     0          
N1       N      0.000000000000     0.792300000000     0.792300000000     0          
Co1      Co     0.000000000000     0.750000000000     0.750000000000     0          
O1       O      0.041500000000     0.041500000000     0.958500000000     0          
O2       O      0.065500000000     0.000000000000     0.878400000000     0          
C3       C      0.132000000000     0.000000000000     0.814300000000     0          
H1       H      0.100800000000     0.000000000000     0.805800000000     0          
C4       C      0.163800000000     0.000000000000     0.783300000000     0          
H2       H      0.154700000000     0.000000000000     0.752200000000     0          
C1       C      0.107900000000     0.000000000000     0.892100000000     0          
C2       C      0.143500000000     0.000000000000     0.856500000000     0          
N1       N      0.207700000000     0.000000000000     0.792300000000     0          
Co1      Co     0.250000000000     0.000000000000     0.750000000000     0          
O1       O      0.958500000000     0.041500000000     0.958500000000     0          
O2       O      0.000000000000     0.065500000000     0.878400000000     0          
C3       C      0.000000000000     0.132000000000     0.814300000000     0          
H1       H      0.000000000000     0.100800000000     0.805800000000     0          
C4       C      0.000000000000     0.163800000000     0.783300000000     0          
H2       H      0.000000000000     0.154700000000     0.752200000000     0          
C1       C      0.000000000000     0.107900000000     0.892100000000     0          
C2       C      0.000000000000     0.143500000000     0.856500000000     0          
N1       N      0.000000000000     0.207700000000     0.792300000000     0          
Co1      Co     0.000000000000     0.250000000000     0.750000000000     0          
O1       O      0.958500000000     0.958500000000     0.958500000000     0          
O2       O      0.934500000000     0.000000000000     0.878400000000     0          
C3       C      0.868000000000     0.000000000000     0.814300000000     0          
H1       H      0.899200000000     0.000000000000     0.805800000000     0          
C4       C      0.836200000000     0.000000000000     0.783300000000     0          
H2       H      0.845300000000     0.000000000000     0.752200000000     0          
C1       C      0.892100000000     0.000000000000     0.892100000000     0          
C2       C      0.856500000000     0.000000000000     0.856500000000     0          
N1       N      0.792300000000     0.000000000000     0.792300000000     0          
Co1      Co     0.750000000000     0.000000000000     0.750000000000     0          
Zr1      Zr     0.083990000000     0.000000000000     0.000000000000     0          
O2       O      0.121600000000     0.000000000000     0.065500000000     0          
C3       C      0.185700000000     0.000000000000     0.132000000000     0          
H1       H      0.194200000000     0.000000000000     0.100800000000     0          
C4       C      0.216700000000     0.000000000000     0.163800000000     0          
H2       H      0.247800000000     0.000000000000     0.154700000000     0          
Zr1      Zr     0.000000000000     0.083990000000     0.000000000000     0          
O2       O      0.000000000000     0.121600000000     0.065500000000     0          
C3       C      0.000000000000     0.185700000000     0.132000000000     0          
H1       H      0.000000000000     0.194200000000     0.100800000000     0          
C4       C      0.000000000000     0.216700000000     0.163800000000     0          
H2       H      0.000000000000     0.247800000000     0.154700000000     0          
Zr1      Zr     0.916010000000     0.000000000000     0.000000000000     0          
O2       O      0.878400000000     0.000000000000     0.065500000000     0          
C3       C      0.814300000000     0.000000000000     0.132000000000     0          
H1       H      0.805800000000     0.000000000000     0.100800000000     0          
C4       C      0.783300000000     0.000000000000     0.163800000000     0          
H2       H      0.752200000000     0.000000000000     0.154700000000     0          
Zr1      Zr     0.000000000000     0.916010000000     0.000000000000     0          
O2       O      0.000000000000     0.878400000000     0.065500000000     0          
C3       C      0.000000000000     0.814300000000     0.132000000000     0          
H1       H      0.000000000000     0.805800000000     0.100800000000     0          
C4       C      0.000000000000     0.783300000000     0.163800000000     0          
H2       H      0.000000000000     0.752200000000     0.154700000000     0          
O2       O      0.121600000000     0.000000000000     0.934500000000     0          
C3       C      0.185700000000     0.000000000000     0.868000000000     0          
H1       H      0.194200000000     0.000000000000     0.899200000000     0          
C4       C      0.216700000000     0.000000000000     0.836200000000     0          
H2       H      0.247800000000     0.000000000000     0.845300000000     0          
O2       O      0.000000000000     0.121600000000     0.934500000000     0          
C3       C      0.000000000000     0.185700000000     0.868000000000     0          
H1       H      0.000000000000     0.194200000000     0.899200000000     0          
C4       C      0.000000000000     0.216700000000     0.836200000000     0          
H2       H      0.000000000000     0.247800000000     0.845300000000     0          
O2       O      0.878400000000     0.000000000000     0.934500000000     0          
C3       C      0.814300000000     0.000000000000     0.868000000000     0          
H1       H      0.805800000000     0.000000000000     0.899200000000     0          
C4       C      0.783300000000     0.000000000000     0.836200000000     0          
H2       H      0.752200000000     0.000000000000     0.845300000000     0          
O2       O      0.000000000000     0.878400000000     0.934500000000     0          
C3       C      0.000000000000     0.814300000000     0.868000000000     0          
H1       H      0.000000000000     0.805800000000     0.899200000000     0          
C4       C      0.000000000000     0.783300000000     0.836200000000     0          
H2       H      0.000000000000     0.752200000000     0.845300000000     0          
O2       O      0.065500000000     0.121600000000     0.000000000000     0          
C3       C      0.132000000000     0.185700000000     0.000000000000     0          
H1       H      0.100800000000     0.194200000000     0.000000000000     0          
C4       C      0.163800000000     0.216700000000     0.000000000000     0          
H2       H      0.154700000000     0.247800000000     0.000000000000     0          
C1       C      0.107900000000     0.107900000000     0.000000000000     0          
C2       C      0.143500000000     0.143500000000     0.000000000000     0          
N1       N      0.207700000000     0.207700000000     0.000000000000     0          
Co1      Co     0.250000000000     0.250000000000     0.000000000000     0          
O2       O      0.065500000000     0.878400000000     0.000000000000     0          
C3       C      0.132000000000     0.814300000000     0.000000000000     0          
H1       H      0.100800000000     0.805800000000     0.000000000000     0          
C4       C      0.163800000000     0.783300000000     0.000000000000     0          
H2       H      0.154700000000     0.752200000000     0.000000000000     0          
C1       C      0.107900000000     0.892100000000     0.000000000000     0          
C2       C      0.143500000000     0.856500000000     0.000000000000     0          
N1       N      0.207700000000     0.792300000000     0.000000000000     0          
Co1      Co     0.250000000000     0.750000000000     0.000000000000     0          
O2       O      0.121600000000     0.065500000000     0.000000000000     0          
C3       C      0.185700000000     0.132000000000     0.000000000000     0          
H1       H      0.194200000000     0.100800000000     0.000000000000     0          
C4       C      0.216700000000     0.163800000000     0.000000000000     0          
H2       H      0.247800000000     0.154700000000     0.000000000000     0          
O2       O      0.934500000000     0.121600000000     0.000000000000     0          
C3       C      0.868000000000     0.185700000000     0.000000000000     0          
H1       H      0.899200000000     0.194200000000     0.000000000000     0          
C4       C      0.836200000000     0.216700000000     0.000000000000     0          
H2       H      0.845300000000     0.247800000000     0.000000000000     0          
C1       C      0.892100000000     0.107900000000     0.000000000000     0          
C2       C      0.856500000000     0.143500000000     0.000000000000     0          
N1       N      0.792300000000     0.207700000000     0.000000000000     0          
Co1      Co     0.750000000000     0.250000000000     0.000000000000     0          
O2       O      0.878400000000     0.934500000000     0.000000000000     0          
C3       C      0.814300000000     0.868000000000     0.000000000000     0          
H1       H      0.805800000000     0.899200000000     0.000000000000     0          
C4       C      0.783300000000     0.836200000000     0.000000000000     0          
H2       H      0.752200000000     0.845300000000     0.000000000000     0          
C1       C      0.892100000000     0.892100000000     0.000000000000     0          
C2       C      0.856500000000     0.856500000000     0.000000000000     0          
N1       N      0.792300000000     0.792300000000     0.000000000000     0          
Co1      Co     0.750000000000     0.750000000000     0.000000000000     0          
O2       O      0.934500000000     0.878400000000     0.000000000000     0          
C3       C      0.868000000000     0.814300000000     0.000000000000     0          
H1       H      0.899200000000     0.805800000000     0.000000000000     0          
C4       C      0.836200000000     0.783300000000     0.000000000000     0          
H2       H      0.845300000000     0.752200000000     0.000000000000     0          
O2       O      0.121600000000     0.934500000000     0.000000000000     0          
C3       C      0.185700000000     0.868000000000     0.000000000000     0          
H1       H      0.194200000000     0.899200000000     0.000000000000     0          
C4       C      0.216700000000     0.836200000000     0.000000000000     0          
H2       H      0.247800000000     0.845300000000     0.000000000000     0          
O2       O      0.878400000000     0.065500000000     0.000000000000     0          
C3       C      0.814300000000     0.132000000000     0.000000000000     0          
H1       H      0.805800000000     0.100800000000     0.000000000000     0          
C4       C      0.783300000000     0.163800000000     0.000000000000     0          
H2       H      0.752200000000     0.154700000000     0.000000000000     0          
Zr1      Zr     0.000000000000     0.500000000000     0.583990000000     0          
O1       O      0.041500000000     0.541500000000     0.541500000000     0          
O2       O      0.000000000000     0.565500000000     0.621600000000     0          
C3       C      0.000000000000     0.632000000000     0.685700000000     0          
H1       H      0.000000000000     0.600800000000     0.694200000000     0          
C4       C      0.000000000000     0.663800000000     0.716700000000     0          
H2       H      0.000000000000     0.654700000000     0.747800000000     0          
C1       C      0.000000000000     0.607900000000     0.607900000000     0          
C2       C      0.000000000000     0.643500000000     0.643500000000     0          
N1       N      0.000000000000     0.707700000000     0.707700000000     0          
O1       O      0.958500000000     0.541500000000     0.541500000000     0          
O2       O      0.934500000000     0.500000000000     0.621600000000     0          
C3       C      0.868000000000     0.500000000000     0.685700000000     0          
H1       H      0.899200000000     0.500000000000     0.694200000000     0          
C4       C      0.836200000000     0.500000000000     0.716700000000     0          
H2       H      0.845300000000     0.500000000000     0.747800000000     0          
C1       C      0.892100000000     0.500000000000     0.607900000000     0          
C2       C      0.856500000000     0.500000000000     0.643500000000     0          
N1       N      0.792300000000     0.500000000000     0.707700000000     0          
Co1      Co     0.750000000000     0.500000000000     0.750000000000     0          
O1       O      0.958500000000     0.458500000000     0.541500000000     0          
O2       O      0.000000000000     0.434500000000     0.621600000000     0          
C3       C      0.000000000000     0.368000000000     0.685700000000     0          
H1       H      0.000000000000     0.399200000000     0.694200000000     0          
C4       C      0.000000000000     0.336200000000     0.716700000000     0          
H2       H      0.000000000000     0.345300000000     0.747800000000     0          
C1       C      0.000000000000     0.392100000000     0.607900000000     0          
C2       C      0.000000000000     0.356500000000     0.643500000000     0          
N1       N      0.000000000000     0.292300000000     0.707700000000     0          
O1       O      0.041500000000     0.458500000000     0.541500000000     0          
O2       O      0.065500000000     0.500000000000     0.621600000000     0          
C3       C      0.132000000000     0.500000000000     0.685700000000     0          
H1       H      0.100800000000     0.500000000000     0.694200000000     0          
C4       C      0.163800000000     0.500000000000     0.716700000000     0          
H2       H      0.154700000000     0.500000000000     0.747800000000     0          
C1       C      0.107900000000     0.500000000000     0.607900000000     0          
C2       C      0.143500000000     0.500000000000     0.643500000000     0          
N1       N      0.207700000000     0.500000000000     0.707700000000     0          
Co1      Co     0.250000000000     0.500000000000     0.750000000000     0          
Zr1      Zr     0.000000000000     0.500000000000     0.416010000000     0          
O1       O      0.041500000000     0.458500000000     0.458500000000     0          
O2       O      0.000000000000     0.434500000000     0.378400000000     0          
C3       C      0.000000000000     0.368000000000     0.314300000000     0          
H1       H      0.000000000000     0.399200000000     0.305800000000     0          
C4       C      0.000000000000     0.336200000000     0.283300000000     0          
H2       H      0.000000000000     0.345300000000     0.252200000000     0          
C1       C      0.000000000000     0.392100000000     0.392100000000     0          
C2       C      0.000000000000     0.356500000000     0.356500000000     0          
N1       N      0.000000000000     0.292300000000     0.292300000000     0          
O1       O      0.041500000000     0.541500000000     0.458500000000     0          
O2       O      0.065500000000     0.500000000000     0.378400000000     0          
C3       C      0.132000000000     0.500000000000     0.314300000000     0          
H1       H      0.100800000000     0.500000000000     0.305800000000     0          
C4       C      0.163800000000     0.500000000000     0.283300000000     0          
H2       H      0.154700000000     0.500000000000     0.252200000000     0          
C1       C      0.107900000000     0.500000000000     0.392100000000     0          
C2       C      0.143500000000     0.500000000000     0.356500000000     0          
N1       N      0.207700000000     0.500000000000     0.292300000000     0          
Co1      Co     0.250000000000     0.500000000000     0.250000000000     0          
O1       O      0.958500000000     0.541500000000     0.458500000000     0          
O2       O      0.000000000000     0.565500000000     0.378400000000     0          
C3       C      0.000000000000     0.632000000000     0.314300000000     0          
H1       H      0.000000000000     0.600800000000     0.305800000000     0          
C4       C      0.000000000000     0.663800000000     0.283300000000     0          
H2       H      0.000000000000     0.654700000000     0.252200000000     0          
C1       C      0.000000000000     0.607900000000     0.392100000000     0          
C2       C      0.000000000000     0.643500000000     0.356500000000     0          
N1       N      0.000000000000     0.707700000000     0.292300000000     0          
O1       O      0.958500000000     0.458500000000     0.458500000000     0          
O2       O      0.934500000000     0.500000000000     0.378400000000     0          
C3       C      0.868000000000     0.500000000000     0.314300000000     0          
H1       H      0.899200000000     0.500000000000     0.305800000000     0          
C4       C      0.836200000000     0.500000000000     0.283300000000     0          
H2       H      0.845300000000     0.500000000000     0.252200000000     0          
C1       C      0.892100000000     0.500000000000     0.392100000000     0          
C2       C      0.856500000000     0.500000000000     0.356500000000     0          
N1       N      0.792300000000     0.500000000000     0.292300000000     0          
Co1      Co     0.750000000000     0.500000000000     0.250000000000     0          
Zr1      Zr     0.083990000000     0.500000000000     0.500000000000     0          
O2       O      0.121600000000     0.500000000000     0.565500000000     0          
C3       C      0.185700000000     0.500000000000     0.632000000000     0          
H1       H      0.194200000000     0.500000000000     0.600800000000     0          
C4       C      0.216700000000     0.500000000000     0.663800000000     0          
H2       H      0.247800000000     0.500000000000     0.654700000000     0          
Zr1      Zr     0.000000000000     0.583990000000     0.500000000000     0          
O2       O      0.000000000000     0.621600000000     0.565500000000     0          
C3       C      0.000000000000     0.685700000000     0.632000000000     0          
H1       H      0.000000000000     0.694200000000     0.600800000000     0          
C4       C      0.000000000000     0.716700000000     0.663800000000     0          
H2       H      0.000000000000     0.747800000000     0.654700000000     0          
Zr1      Zr     0.916010000000     0.500000000000     0.500000000000     0          
O2       O      0.878400000000     0.500000000000     0.565500000000     0          
C3       C      0.814300000000     0.500000000000     0.632000000000     0          
H1       H      0.805800000000     0.500000000000     0.600800000000     0          
C4       C      0.783300000000     0.500000000000     0.663800000000     0          
H2       H      0.752200000000     0.500000000000     0.654700000000     0          
Zr1      Zr     0.000000000000     0.416010000000     0.500000000000     0          
O2       O      0.000000000000     0.378400000000     0.565500000000     0          
C3       C      0.000000000000     0.314300000000     0.632000000000     0          
H1       H      0.000000000000     0.305800000000     0.600800000000     0          
C4       C      0.000000000000     0.283300000000     0.663800000000     0          
H2       H      0.000000000000     0.252200000000     0.654700000000     0          
O2       O      0.121600000000     0.500000000000     0.434500000000     0          
C3       C      0.185700000000     0.500000000000     0.368000000000     0          
H1       H      0.194200000000     0.500000000000     0.399200000000     0          
C4       C      0.216700000000     0.500000000000     0.336200000000     0          
H2       H      0.247800000000     0.500000000000     0.345300000000     0          
O2       O      0.000000000000     0.621600000000     0.434500000000     0          
C3       C      0.000000000000     0.685700000000     0.368000000000     0          
H1       H      0.000000000000     0.694200000000     0.399200000000     0          
C4       C      0.000000000000     0.716700000000     0.336200000000     0          
H2       H      0.000000000000     0.747800000000     0.345300000000     0          
O2       O      0.878400000000     0.500000000000     0.434500000000     0          
C3       C      0.814300000000     0.500000000000     0.368000000000     0          
H1       H      0.805800000000     0.500000000000     0.399200000000     0          
C4       C      0.783300000000     0.500000000000     0.336200000000     0          
H2       H      0.752200000000     0.500000000000     0.345300000000     0          
O2       O      0.000000000000     0.378400000000     0.434500000000     0          
C3       C      0.000000000000     0.314300000000     0.368000000000     0          
H1       H      0.000000000000     0.305800000000     0.399200000000     0          
C4       C      0.000000000000     0.283300000000     0.336200000000     0          
H2       H      0.000000000000     0.252200000000     0.345300000000     0          
O2       O      0.065500000000     0.621600000000     0.500000000000     0          
C3       C      0.132000000000     0.685700000000     0.500000000000     0          
H1       H      0.100800000000     0.694200000000     0.500000000000     0          
C4       C      0.163800000000     0.716700000000     0.500000000000     0          
H2       H      0.154700000000     0.747800000000     0.500000000000     0          
C1       C      0.107900000000     0.607900000000     0.500000000000     0          
C2       C      0.143500000000     0.643500000000     0.500000000000     0          
N1       N      0.207700000000     0.707700000000     0.500000000000     0          
Co1      Co     0.250000000000     0.750000000000     0.500000000000     0          
O2       O      0.065500000000     0.378400000000     0.500000000000     0          
C3       C      0.132000000000     0.314300000000     0.500000000000     0          
H1       H      0.100800000000     0.305800000000     0.500000000000     0          
C4       C      0.163800000000     0.283300000000     0.500000000000     0          
H2       H      0.154700000000     0.252200000000     0.500000000000     0          
C1       C      0.107900000000     0.392100000000     0.500000000000     0          
C2       C      0.143500000000     0.356500000000     0.500000000000     0          
N1       N      0.207700000000     0.292300000000     0.500000000000     0          
Co1      Co     0.250000000000     0.250000000000     0.500000000000     0          
O2       O      0.121600000000     0.565500000000     0.500000000000     0          
C3       C      0.185700000000     0.632000000000     0.500000000000     0          
H1       H      0.194200000000     0.600800000000     0.500000000000     0          
C4       C      0.216700000000     0.663800000000     0.500000000000     0          
H2       H      0.247800000000     0.654700000000     0.500000000000     0          
O2       O      0.934500000000     0.621600000000     0.500000000000     0          
C3       C      0.868000000000     0.685700000000     0.500000000000     0          
H1       H      0.899200000000     0.694200000000     0.500000000000     0          
C4       C      0.836200000000     0.716700000000     0.500000000000     0          
H2       H      0.845300000000     0.747800000000     0.500000000000     0          
C1       C      0.892100000000     0.607900000000     0.500000000000     0          
C2       C      0.856500000000     0.643500000000     0.500000000000     0          
N1       N      0.792300000000     0.707700000000     0.500000000000     0          
Co1      Co     0.750000000000     0.750000000000     0.500000000000     0          
O2       O      0.878400000000     0.434500000000     0.500000000000     0          
C3       C      0.814300000000     0.368000000000     0.500000000000     0          
H1       H      0.805800000000     0.399200000000     0.500000000000     0          
C4       C      0.783300000000     0.336200000000     0.500000000000     0          
H2       H      0.752200000000     0.345300000000     0.500000000000     0          
C1       C      0.892100000000     0.392100000000     0.500000000000     0          
C2       C      0.856500000000     0.356500000000     0.500000000000     0          
N1       N      0.792300000000     0.292300000000     0.500000000000     0          
Co1      Co     0.750000000000     0.250000000000     0.500000000000     0          
O2       O      0.934500000000     0.378400000000     0.500000000000     0          
C3       C      0.868000000000     0.314300000000     0.500000000000     0          
H1       H      0.899200000000     0.305800000000     0.500000000000     0          
C4       C      0.836200000000     0.283300000000     0.500000000000     0          
H2       H      0.845300000000     0.252200000000     0.500000000000     0          
O2       O      0.121600000000     0.434500000000     0.500000000000     0          
C3       C      0.185700000000     0.368000000000     0.500000000000     0          
H1       H      0.194200000000     0.399200000000     0.500000000000     0          
C4       C      0.216700000000     0.336200000000     0.500000000000     0          
H2       H      0.247800000000     0.345300000000     0.500000000000     0          
O2       O      0.878400000000     0.565500000000     0.500000000000     0          
C3       C      0.814300000000     0.632000000000     0.500000000000     0          
H1       H      0.805800000000     0.600800000000     0.500000000000     0          
C4       C      0.783300000000     0.663800000000     0.500000000000     0          
H2       H      0.752200000000     0.654700000000     0.500000000000     0          
Zr1      Zr     0.500000000000     0.000000000000     0.583990000000     0          
O1       O      0.541500000000     0.041500000000     0.541500000000     0          
O2       O      0.500000000000     0.065500000000     0.621600000000     0          
C3       C      0.500000000000     0.132000000000     0.685700000000     0          
H1       H      0.500000000000     0.100800000000     0.694200000000     0          
C4       C      0.500000000000     0.163800000000     0.716700000000     0          
H2       H      0.500000000000     0.154700000000     0.747800000000     0          
C1       C      0.500000000000     0.107900000000     0.607900000000     0          
C2       C      0.500000000000     0.143500000000     0.643500000000     0          
N1       N      0.500000000000     0.207700000000     0.707700000000     0          
Co1      Co     0.500000000000     0.250000000000     0.750000000000     0          
O1       O      0.458500000000     0.041500000000     0.541500000000     0          
O2       O      0.434500000000     0.000000000000     0.621600000000     0          
C3       C      0.368000000000     0.000000000000     0.685700000000     0          
H1       H      0.399200000000     0.000000000000     0.694200000000     0          
C4       C      0.336200000000     0.000000000000     0.716700000000     0          
H2       H      0.345300000000     0.000000000000     0.747800000000     0          
C1       C      0.392100000000     0.000000000000     0.607900000000     0          
C2       C      0.356500000000     0.000000000000     0.643500000000     0          
N1       N      0.292300000000     0.000000000000     0.707700000000     0          
O1       O      0.458500000000     0.958500000000     0.541500000000     0          
O2       O      0.500000000000     0.934500000000     0.621600000000     0          
C3       C      0.500000000000     0.868000000000     0.685700000000     0          
H1       H      0.500000000000     0.899200000000     0.694200000000     0          
C4       C      0.500000000000     0.836200000000     0.716700000000     0          
H2       H      0.500000000000     0.845300000000     0.747800000000     0          
C1       C      0.500000000000     0.892100000000     0.607900000000     0          
C2       C      0.500000000000     0.856500000000     0.643500000000     0          
N1       N      0.500000000000     0.792300000000     0.707700000000     0          
Co1      Co     0.500000000000     0.750000000000     0.750000000000     0          
O1       O      0.541500000000     0.958500000000     0.541500000000     0          
O2       O      0.565500000000     0.000000000000     0.621600000000     0          
C3       C      0.632000000000     0.000000000000     0.685700000000     0          
H1       H      0.600800000000     0.000000000000     0.694200000000     0          
C4       C      0.663800000000     0.000000000000     0.716700000000     0          
H2       H      0.654700000000     0.000000000000     0.747800000000     0          
C1       C      0.607900000000     0.000000000000     0.607900000000     0          
C2       C      0.643500000000     0.000000000000     0.643500000000     0          
N1       N      0.707700000000     0.000000000000     0.707700000000     0          
Zr1      Zr     0.500000000000     0.000000000000     0.416010000000     0          
O1       O      0.541500000000     0.958500000000     0.458500000000     0          
O2       O      0.500000000000     0.934500000000     0.378400000000     0          
C3       C      0.500000000000     0.868000000000     0.314300000000     0          
H1       H      0.500000000000     0.899200000000     0.305800000000     0          
C4       C      0.500000000000     0.836200000000     0.283300000000     0          
H2       H      0.500000000000     0.845300000000     0.252200000000     0          
C1       C      0.500000000000     0.892100000000     0.392100000000     0          
C2       C      0.500000000000     0.856500000000     0.356500000000     0          
N1       N      0.500000000000     0.792300000000     0.292300000000     0          
Co1      Co     0.500000000000     0.750000000000     0.250000000000     0          
O1       O      0.541500000000     0.041500000000     0.458500000000     0          
O2       O      0.565500000000     0.000000000000     0.378400000000     0          
C3       C      0.632000000000     0.000000000000     0.314300000000     0          
H1       H      0.600800000000     0.000000000000     0.305800000000     0          
C4       C      0.663800000000     0.000000000000     0.283300000000     0          
H2       H      0.654700000000     0.000000000000     0.252200000000     0          
C1       C      0.607900000000     0.000000000000     0.392100000000     0          
C2       C      0.643500000000     0.000000000000     0.356500000000     0          
N1       N      0.707700000000     0.000000000000     0.292300000000     0          
O1       O      0.458500000000     0.041500000000     0.458500000000     0          
O2       O      0.500000000000     0.065500000000     0.378400000000     0          
C3       C      0.500000000000     0.132000000000     0.314300000000     0          
H1       H      0.500000000000     0.100800000000     0.305800000000     0          
C4       C      0.500000000000     0.163800000000     0.283300000000     0          
H2       H      0.500000000000     0.154700000000     0.252200000000     0          
C1       C      0.500000000000     0.107900000000     0.392100000000     0          
C2       C      0.500000000000     0.143500000000     0.356500000000     0          
N1       N      0.500000000000     0.207700000000     0.292300000000     0          
Co1      Co     0.500000000000     0.250000000000     0.250000000000     0          
O1       O      0.458500000000     0.958500000000     0.458500000000     0          
O2       O      0.434500000000     0.000000000000     0.378400000000     0          
C3       C      0.368000000000     0.000000000000     0.314300000000     0          
H1       H      0.399200000000     0.000000000000     0.305800000000     0          
C4       C      0.336200000000     0.000000000000     0.283300000000     0          
H2       H      0.345300000000     0.000000000000     0.252200000000     0          
C1       C      0.392100000000     0.000000000000     0.392100000000     0          
C2       C      0.356500000000     0.000000000000     0.356500000000     0          
N1       N      0.292300000000     0.000000000000     0.292300000000     0          
Zr1      Zr     0.583990000000     0.000000000000     0.500000000000     0          
O2       O      0.621600000000     0.000000000000     0.565500000000     0          
C3       C      0.685700000000     0.000000000000     0.632000000000     0          
H1       H      0.694200000000     0.000000000000     0.600800000000     0          
C4       C      0.716700000000     0.000000000000     0.663800000000     0          
H2       H      0.747800000000     0.000000000000     0.654700000000     0          
Zr1      Zr     0.500000000000     0.083990000000     0.500000000000     0          
O2       O      0.500000000000     0.121600000000     0.565500000000     0          
C3       C      0.500000000000     0.185700000000     0.632000000000     0          
H1       H      0.500000000000     0.194200000000     0.600800000000     0          
C4       C      0.500000000000     0.216700000000     0.663800000000     0          
H2       H      0.500000000000     0.247800000000     0.654700000000     0          
Zr1      Zr     0.416010000000     0.000000000000     0.500000000000     0          
O2       O      0.378400000000     0.000000000000     0.565500000000     0          
C3       C      0.314300000000     0.000000000000     0.632000000000     0          
H1       H      0.305800000000     0.000000000000     0.600800000000     0          
C4       C      0.283300000000     0.000000000000     0.663800000000     0          
H2       H      0.252200000000     0.000000000000     0.654700000000     0          
Zr1      Zr     0.500000000000     0.916010000000     0.500000000000     0          
O2       O      0.500000000000     0.878400000000     0.565500000000     0          
C3       C      0.500000000000     0.814300000000     0.632000000000     0          
H1       H      0.500000000000     0.805800000000     0.600800000000     0          
C4       C      0.500000000000     0.783300000000     0.663800000000     0          
H2       H      0.500000000000     0.752200000000     0.654700000000     0          
O2       O      0.621600000000     0.000000000000     0.434500000000     0          
C3       C      0.685700000000     0.000000000000     0.368000000000     0          
H1       H      0.694200000000     0.000000000000     0.399200000000     0          
C4       C      0.716700000000     0.000000000000     0.336200000000     0          
H2       H      0.747800000000     0.000000000000     0.345300000000     0          
O2       O      0.500000000000     0.121600000000     0.434500000000     0          
C3       C      0.500000000000     0.185700000000     0.368000000000     0          
H1       H      0.500000000000     0.194200000000     0.399200000000     0          
C4       C      0.500000000000     0.216700000000     0.336200000000     0          
H2       H      0.500000000000     0.247800000000     0.345300000000     0          
O2       O      0.378400000000     0.000000000000     0.434500000000     0          
C3       C      0.314300000000     0.000000000000     0.368000000000     0          
H1       H      0.305800000000     0.000000000000     0.399200000000     0          
C4       C      0.283300000000     0.000000000000     0.336200000000     0          
H2       H      0.252200000000     0.000000000000     0.345300000000     0          
O2       O      0.500000000000     0.878400000000     0.434500000000     0          
C3       C      0.500000000000     0.814300000000     0.368000000000     0          
H1       H      0.500000000000     0.805800000000     0.399200000000     0          
C4       C      0.500000000000     0.783300000000     0.336200000000     0          
H2       H      0.500000000000     0.752200000000     0.345300000000     0          
O2       O      0.565500000000     0.121600000000     0.500000000000     0          
C3       C      0.632000000000     0.185700000000     0.500000000000     0          
H1       H      0.600800000000     0.194200000000     0.500000000000     0          
C4       C      0.663800000000     0.216700000000     0.500000000000     0          
H2       H      0.654700000000     0.247800000000     0.500000000000     0          
C1       C      0.607900000000     0.107900000000     0.500000000000     0          
C2       C      0.643500000000     0.143500000000     0.500000000000     0          
N1       N      0.707700000000     0.207700000000     0.500000000000     0          
O2       O      0.565500000000     0.878400000000     0.500000000000     0          
C3       C      0.632000000000     0.814300000000     0.500000000000     0          
H1       H      0.600800000000     0.805800000000     0.500000000000     0          
C4       C      0.663800000000     0.783300000000     0.500000000000     0          
H2       H      0.654700000000     0.752200000000     0.500000000000     0          
C1       C      0.607900000000     0.892100000000     0.500000000000     0          
C2       C      0.643500000000     0.856500000000     0.500000000000     0          
N1       N      0.707700000000     0.792300000000     0.500000000000     0          
O2       O      0.621600000000     0.065500000000     0.500000000000     0          
C3       C      0.685700000000     0.132000000000     0.500000000000     0          
H1       H      0.694200000000     0.100800000000     0.500000000000     0          
C4       C      0.716700000000     0.163800000000     0.500000000000     0          
H2       H      0.747800000000     0.154700000000     0.500000000000     0          
O2       O      0.434500000000     0.121600000000     0.500000000000     0          
C3       C      0.368000000000     0.185700000000     0.500000000000     0          
H1       H      0.399200000000     0.194200000000     0.500000000000     0          
C4       C      0.336200000000     0.216700000000     0.500000000000     0          
H2       H      0.345300000000     0.247800000000     0.500000000000     0          
C1       C      0.392100000000     0.107900000000     0.500000000000     0          
C2       C      0.356500000000     0.143500000000     0.500000000000     0          
N1       N      0.292300000000     0.207700000000     0.500000000000     0          
O2       O      0.378400000000     0.934500000000     0.500000000000     0          
C3       C      0.314300000000     0.868000000000     0.500000000000     0          
H1       H      0.305800000000     0.899200000000     0.500000000000     0          
C4       C      0.283300000000     0.836200000000     0.500000000000     0          
H2       H      0.252200000000     0.845300000000     0.500000000000     0          
C1       C      0.392100000000     0.892100000000     0.500000000000     0          
C2       C      0.356500000000     0.856500000000     0.500000000000     0          
N1       N      0.292300000000     0.792300000000     0.500000000000     0          
O2       O      0.434500000000     0.878400000000     0.500000000000     0          
C3       C      0.368000000000     0.814300000000     0.500000000000     0          
H1       H      0.399200000000     0.805800000000     0.500000000000     0          
C4       C      0.336200000000     0.783300000000     0.500000000000     0          
H2       H      0.345300000000     0.752200000000     0.500000000000     0          
O2       O      0.621600000000     0.934500000000     0.500000000000     0          
C3       C      0.685700000000     0.868000000000     0.500000000000     0          
H1       H      0.694200000000     0.899200000000     0.500000000000     0          
C4       C      0.716700000000     0.836200000000     0.500000000000     0          
H2       H      0.747800000000     0.845300000000     0.500000000000     0          
O2       O      0.378400000000     0.065500000000     0.500000000000     0          
C3       C      0.314300000000     0.132000000000     0.500000000000     0          
H1       H      0.305800000000     0.100800000000     0.500000000000     0          
C4       C      0.283300000000     0.163800000000     0.500000000000     0          
H2       H      0.252200000000     0.154700000000     0.500000000000     0          
Zr1      Zr     0.500000000000     0.500000000000     0.083990000000     0          
O1       O      0.541500000000     0.541500000000     0.041500000000     0          
O2       O      0.500000000000     0.565500000000     0.121600000000     0          
C3       C      0.500000000000     0.632000000000     0.185700000000     0          
H1       H      0.500000000000     0.600800000000     0.194200000000     0          
C4       C      0.500000000000     0.663800000000     0.216700000000     0          
H2       H      0.500000000000     0.654700000000     0.247800000000     0          
C1       C      0.500000000000     0.607900000000     0.107900000000     0          
C2       C      0.500000000000     0.643500000000     0.143500000000     0          
N1       N      0.500000000000     0.707700000000     0.207700000000     0          
O1       O      0.458500000000     0.541500000000     0.041500000000     0          
O2       O      0.434500000000     0.500000000000     0.121600000000     0          
C3       C      0.368000000000     0.500000000000     0.185700000000     0          
H1       H      0.399200000000     0.500000000000     0.194200000000     0          
C4       C      0.336200000000     0.500000000000     0.216700000000     0          
H2       H      0.345300000000     0.500000000000     0.247800000000     0          
C1       C      0.392100000000     0.500000000000     0.107900000000     0          
C2       C      0.356500000000     0.500000000000     0.143500000000     0          
N1       N      0.292300000000     0.500000000000     0.207700000000     0          
O1       O      0.458500000000     0.458500000000     0.041500000000     0          
O2       O      0.500000000000     0.434500000000     0.121600000000     0          
C3       C      0.500000000000     0.368000000000     0.185700000000     0          
H1       H      0.500000000000     0.399200000000     0.194200000000     0          
C4       C      0.500000000000     0.336200000000     0.216700000000     0          
H2       H      0.500000000000     0.345300000000     0.247800000000     0          
C1       C      0.500000000000     0.392100000000     0.107900000000     0          
C2       C      0.500000000000     0.356500000000     0.143500000000     0          
N1       N      0.500000000000     0.292300000000     0.207700000000     0          
O1       O      0.541500000000     0.458500000000     0.041500000000     0          
O2       O      0.565500000000     0.500000000000     0.121600000000     0          
C3       C      0.632000000000     0.500000000000     0.185700000000     0          
H1       H      0.600800000000     0.500000000000     0.194200000000     0          
C4       C      0.663800000000     0.500000000000     0.216700000000     0          
H2       H      0.654700000000     0.500000000000     0.247800000000     0          
C1       C      0.607900000000     0.500000000000     0.107900000000     0          
C2       C      0.643500000000     0.500000000000     0.143500000000     0          
N1       N      0.707700000000     0.500000000000     0.207700000000     0          
Zr1      Zr     0.500000000000     0.500000000000     0.916010000000     0          
O1       O      0.541500000000     0.458500000000     0.958500000000     0          
O2       O      0.500000000000     0.434500000000     0.878400000000     0          
C3       C      0.500000000000     0.368000000000     0.814300000000     0          
H1       H      0.500000000000     0.399200000000     0.805800000000     0          
C4       C      0.500000000000     0.336200000000     0.783300000000     0          
H2       H      0.500000000000     0.345300000000     0.752200000000     0          
C1       C      0.500000000000     0.392100000000     0.892100000000     0          
C2       C      0.500000000000     0.356500000000     0.856500000000     0          
N1       N      0.500000000000     0.292300000000     0.792300000000     0          
O1       O      0.541500000000     0.541500000000     0.958500000000     0          
O2       O      0.565500000000     0.500000000000     0.878400000000     0          
C3       C      0.632000000000     0.500000000000     0.814300000000     0          
H1       H      0.600800000000     0.500000000000     0.805800000000     0          
C4       C      0.663800000000     0.500000000000     0.783300000000     0          
H2       H      0.654700000000     0.500000000000     0.752200000000     0          
C1       C      0.607900000000     0.500000000000     0.892100000000     0          
C2       C      0.643500000000     0.500000000000     0.856500000000     0          
N1       N      0.707700000000     0.500000000000     0.792300000000     0          
O1       O      0.458500000000     0.541500000000     0.958500000000     0          
O2       O      0.500000000000     0.565500000000     0.878400000000     0          
C3       C      0.500000000000     0.632000000000     0.814300000000     0          
H1       H      0.500000000000     0.600800000000     0.805800000000     0          
C4       C      0.500000000000     0.663800000000     0.783300000000     0          
H2       H      0.500000000000     0.654700000000     0.752200000000     0          
C1       C      0.500000000000     0.607900000000     0.892100000000     0          
C2       C      0.500000000000     0.643500000000     0.856500000000     0          
N1       N      0.500000000000     0.707700000000     0.792300000000     0          
O1       O      0.458500000000     0.458500000000     0.958500000000     0          
O2       O      0.434500000000     0.500000000000     0.878400000000     0          
C3       C      0.368000000000     0.500000000000     0.814300000000     0          
H1       H      0.399200000000     0.500000000000     0.805800000000     0          
C4       C      0.336200000000     0.500000000000     0.783300000000     0          
H2       H      0.345300000000     0.500000000000     0.752200000000     0          
C1       C      0.392100000000     0.500000000000     0.892100000000     0          
C2       C      0.356500000000     0.500000000000     0.856500000000     0          
N1       N      0.292300000000     0.500000000000     0.792300000000     0          
Zr1      Zr     0.583990000000     0.500000000000     0.000000000000     0          
O2       O      0.621600000000     0.500000000000     0.065500000000     0          
C3       C      0.685700000000     0.500000000000     0.132000000000     0          
H1       H      0.694200000000     0.500000000000     0.100800000000     0          
C4       C      0.716700000000     0.500000000000     0.163800000000     0          
H2       H      0.747800000000     0.500000000000     0.154700000000     0          
Zr1      Zr     0.500000000000     0.583990000000     0.000000000000     0          
O2       O      0.500000000000     0.621600000000     0.065500000000     0          
C3       C      0.500000000000     0.685700000000     0.132000000000     0          
H1       H      0.500000000000     0.694200000000     0.100800000000     0          
C4       C      0.500000000000     0.716700000000     0.163800000000     0          
H2       H      0.500000000000     0.747800000000     0.154700000000     0          
Zr1      Zr     0.416010000000     0.500000000000     0.000000000000     0          
O2       O      0.378400000000     0.500000000000     0.065500000000     0          
C3       C      0.314300000000     0.500000000000     0.132000000000     0          
H1       H      0.305800000000     0.500000000000     0.100800000000     0          
C4       C      0.283300000000     0.500000000000     0.163800000000     0          
H2       H      0.252200000000     0.500000000000     0.154700000000     0          
Zr1      Zr     0.500000000000     0.416010000000     0.000000000000     0          
O2       O      0.500000000000     0.378400000000     0.065500000000     0          
C3       C      0.500000000000     0.314300000000     0.132000000000     0          
H1       H      0.500000000000     0.305800000000     0.100800000000     0          
C4       C      0.500000000000     0.283300000000     0.163800000000     0          
H2       H      0.500000000000     0.252200000000     0.154700000000     0          
O2       O      0.621600000000     0.500000000000     0.934500000000     0          
C3       C      0.685700000000     0.500000000000     0.868000000000     0          
H1       H      0.694200000000     0.500000000000     0.899200000000     0          
C4       C      0.716700000000     0.500000000000     0.836200000000     0          
H2       H      0.747800000000     0.500000000000     0.845300000000     0          
O2       O      0.500000000000     0.621600000000     0.934500000000     0          
C3       C      0.500000000000     0.685700000000     0.868000000000     0          
H1       H      0.500000000000     0.694200000000     0.899200000000     0          
C4       C      0.500000000000     0.716700000000     0.836200000000     0          
H2       H      0.500000000000     0.747800000000     0.845300000000     0          
O2       O      0.378400000000     0.500000000000     0.934500000000     0          
C3       C      0.314300000000     0.500000000000     0.868000000000     0          
H1       H      0.305800000000     0.500000000000     0.899200000000     0          
C4       C      0.283300000000     0.500000000000     0.836200000000     0          
H2       H      0.252200000000     0.500000000000     0.845300000000     0          
O2       O      0.500000000000     0.378400000000     0.934500000000     0          
C3       C      0.500000000000     0.314300000000     0.868000000000     0          
H1       H      0.500000000000     0.305800000000     0.899200000000     0          
C4       C      0.500000000000     0.283300000000     0.836200000000     0          
H2       H      0.500000000000     0.252200000000     0.845300000000     0          
O2       O      0.565500000000     0.621600000000     0.000000000000     0          
C3       C      0.632000000000     0.685700000000     0.000000000000     0          
H1       H      0.600800000000     0.694200000000     0.000000000000     0          
C4       C      0.663800000000     0.716700000000     0.000000000000     0          
H2       H      0.654700000000     0.747800000000     0.000000000000     0          
C1       C      0.607900000000     0.607900000000     0.000000000000     0          
C2       C      0.643500000000     0.643500000000     0.000000000000     0          
N1       N      0.707700000000     0.707700000000     0.000000000000     0          
O2       O      0.565500000000     0.378400000000     0.000000000000     0          
C3       C      0.632000000000     0.314300000000     0.000000000000     0          
H1       H      0.600800000000     0.305800000000     0.000000000000     0          
C4       C      0.663800000000     0.283300000000     0.000000000000     0          
H2       H      0.654700000000     0.252200000000     0.000000000000     0          
C1       C      0.607900000000     0.392100000000     0.000000000000     0          
C2       C      0.643500000000     0.356500000000     0.000000000000     0          
N1       N      0.707700000000     0.292300000000     0.000000000000     0          
O2       O      0.621600000000     0.565500000000     0.000000000000     0          
C3       C      0.685700000000     0.632000000000     0.000000000000     0          
H1       H      0.694200000000     0.600800000000     0.000000000000     0          
C4       C      0.716700000000     0.663800000000     0.000000000000     0          
H2       H      0.747800000000     0.654700000000     0.000000000000     0          
O2       O      0.434500000000     0.621600000000     0.000000000000     0          
C3       C      0.368000000000     0.685700000000     0.000000000000     0          
H1       H      0.399200000000     0.694200000000     0.000000000000     0          
C4       C      0.336200000000     0.716700000000     0.000000000000     0          
H2       H      0.345300000000     0.747800000000     0.000000000000     0          
C1       C      0.392100000000     0.607900000000     0.000000000000     0          
C2       C      0.356500000000     0.643500000000     0.000000000000     0          
N1       N      0.292300000000     0.707700000000     0.000000000000     0          
O2       O      0.378400000000     0.434500000000     0.000000000000     0          
C3       C      0.314300000000     0.368000000000     0.000000000000     0          
H1       H      0.305800000000     0.399200000000     0.000000000000     0          
C4       C      0.283300000000     0.336200000000     0.000000000000     0          
H2       H      0.252200000000     0.345300000000     0.000000000000     0          
C1       C      0.392100000000     0.392100000000     0.000000000000     0          
C2       C      0.356500000000     0.356500000000     0.000000000000     0          
N1       N      0.292300000000     0.292300000000     0.000000000000     0          
O2       O      0.434500000000     0.378400000000     0.000000000000     0          
C3       C      0.368000000000     0.314300000000     0.000000000000     0          
H1       H      0.399200000000     0.305800000000     0.000000000000     0          
C4       C      0.336200000000     0.283300000000     0.000000000000     0          
H2       H      0.345300000000     0.252200000000     0.000000000000     0          
O2       O      0.621600000000     0.434500000000     0.000000000000     0          
C3       C      0.685700000000     0.368000000000     0.000000000000     0          
H1       H      0.694200000000     0.399200000000     0.000000000000     0          
C4       C      0.716700000000     0.336200000000     0.000000000000     0          
H2       H      0.747800000000     0.345300000000     0.000000000000     0          
O2       O      0.378400000000     0.565500000000     0.000000000000     0          
C3       C      0.314300000000     0.632000000000     0.000000000000     0          
H1       H      0.305800000000     0.600800000000     0.000000000000     0          
C4       C      0.283300000000     0.663800000000     0.000000000000     0          
H2       H      0.252200000000     0.654700000000     0.000000000000     0          


