data_FIPCEP

_audit_creation_method RASPA-1.0
_audit_creation_date 2020-11-2
_audit_author_name 'Rocio Bueno-Perez'

_cell_length_a    30.27
_cell_length_b    30.27
_cell_length_c    30.27
_cell_angle_alpha 90
_cell_angle_beta  90
_cell_angle_gamma 90
_cell_volume      27735.6

_symmetry_cell_setting          cubic
_symmetry_space_group_name_Hall 'P 1'
_symmetry_space_group_name_H-M  'P 1'
_symmetry_Int_Tables_number     1

_symmetry_equiv_pos_as_xyz 'x,y,z'

loop_
_atom_site_label
_atom_site_type_symbol
_atom_site_fract_x
_atom_site_fract_y
_atom_site_fract_z
_atom_site_charge
Zr1      Zr     0.500000000000     0.500000000000     0.918420000000     0          
C1       C      0.500000000000     0.396100000000     0.896100000000     0          
C2       C      0.500000000000     0.362300000000     0.862300000000     0          
N1       N      0.500000000000     0.295200000000     0.795200000000     0          
C3       C      0.500000000000     0.371400000000     0.816600000000     0          
H1       H      0.500000000000     0.401200000000     0.806700000000     0          
C4       C      0.500000000000     0.339500000000     0.788100000000     0          
H2       H      0.500000000000     0.348300000000     0.757900000000     0          
O2       O      0.500000000000     0.437000000000     0.880200000000     0          
Co1      Co     0.500000000000     0.250000000000     0.750000000000     0          
O1       O      0.541000000000     0.541000000000     0.959000000000     0          
C1       C      0.603900000000     0.500000000000     0.896100000000     0          
C2       C      0.637700000000     0.500000000000     0.862300000000     0          
N1       N      0.704800000000     0.500000000000     0.795200000000     0          
C3       C      0.628600000000     0.500000000000     0.816600000000     0          
H1       H      0.598800000000     0.500000000000     0.806700000000     0          
C4       C      0.660500000000     0.500000000000     0.788100000000     0          
H2       H      0.651700000000     0.500000000000     0.757900000000     0          
O2       O      0.563000000000     0.500000000000     0.880200000000     0          
Co1      Co     0.750000000000     0.500000000000     0.750000000000     0          
O1       O      0.459000000000     0.541000000000     0.959000000000     0          
C1       C      0.500000000000     0.603900000000     0.896100000000     0          
C2       C      0.500000000000     0.637700000000     0.862300000000     0          
N1       N      0.500000000000     0.704800000000     0.795200000000     0          
C3       C      0.500000000000     0.628600000000     0.816600000000     0          
H1       H      0.500000000000     0.598800000000     0.806700000000     0          
C4       C      0.500000000000     0.660500000000     0.788100000000     0          
H2       H      0.500000000000     0.651700000000     0.757900000000     0          
O2       O      0.500000000000     0.563000000000     0.880200000000     0          
Co1      Co     0.500000000000     0.750000000000     0.750000000000     0          
O1       O      0.459000000000     0.459000000000     0.959000000000     0          
C1       C      0.396100000000     0.500000000000     0.896100000000     0          
C2       C      0.362300000000     0.500000000000     0.862300000000     0          
N1       N      0.295200000000     0.500000000000     0.795200000000     0          
C3       C      0.371400000000     0.500000000000     0.816600000000     0          
H1       H      0.401200000000     0.500000000000     0.806700000000     0          
C4       C      0.339500000000     0.500000000000     0.788100000000     0          
H2       H      0.348300000000     0.500000000000     0.757900000000     0          
O2       O      0.437000000000     0.500000000000     0.880200000000     0          
Co1      Co     0.250000000000     0.500000000000     0.750000000000     0          
O1       O      0.541000000000     0.459000000000     0.959000000000     0          
Zr1      Zr     0.500000000000     0.500000000000     0.081580000000     0          
C1       C      0.500000000000     0.603900000000     0.103900000000     0          
C2       C      0.500000000000     0.637700000000     0.137700000000     0          
N1       N      0.500000000000     0.704800000000     0.204800000000     0          
C3       C      0.500000000000     0.628600000000     0.183400000000     0          
H1       H      0.500000000000     0.598800000000     0.193300000000     0          
C4       C      0.500000000000     0.660500000000     0.211900000000     0          
H2       H      0.500000000000     0.651700000000     0.242100000000     0          
O2       O      0.500000000000     0.563000000000     0.119800000000     0          
Co1      Co     0.500000000000     0.750000000000     0.250000000000     0          
O1       O      0.541000000000     0.459000000000     0.041000000000     0          
C1       C      0.396100000000     0.500000000000     0.103900000000     0          
C2       C      0.362300000000     0.500000000000     0.137700000000     0          
N1       N      0.295200000000     0.500000000000     0.204800000000     0          
C3       C      0.371400000000     0.500000000000     0.183400000000     0          
H1       H      0.401200000000     0.500000000000     0.193300000000     0          
C4       C      0.339500000000     0.500000000000     0.211900000000     0          
H2       H      0.348300000000     0.500000000000     0.242100000000     0          
O2       O      0.437000000000     0.500000000000     0.119800000000     0          
Co1      Co     0.250000000000     0.500000000000     0.250000000000     0          
O1       O      0.541000000000     0.541000000000     0.041000000000     0          
C1       C      0.500000000000     0.396100000000     0.103900000000     0          
C2       C      0.500000000000     0.362300000000     0.137700000000     0          
N1       N      0.500000000000     0.295200000000     0.204800000000     0          
C3       C      0.500000000000     0.371400000000     0.183400000000     0          
H1       H      0.500000000000     0.401200000000     0.193300000000     0          
C4       C      0.500000000000     0.339500000000     0.211900000000     0          
H2       H      0.500000000000     0.348300000000     0.242100000000     0          
O2       O      0.500000000000     0.437000000000     0.119800000000     0          
Co1      Co     0.500000000000     0.250000000000     0.250000000000     0          
O1       O      0.459000000000     0.541000000000     0.041000000000     0          
C1       C      0.603900000000     0.500000000000     0.103900000000     0          
C2       C      0.637700000000     0.500000000000     0.137700000000     0          
N1       N      0.704800000000     0.500000000000     0.204800000000     0          
C3       C      0.628600000000     0.500000000000     0.183400000000     0          
H1       H      0.598800000000     0.500000000000     0.193300000000     0          
C4       C      0.660500000000     0.500000000000     0.211900000000     0          
H2       H      0.651700000000     0.500000000000     0.242100000000     0          
O2       O      0.563000000000     0.500000000000     0.119800000000     0          
Co1      Co     0.750000000000     0.500000000000     0.250000000000     0          
O1       O      0.459000000000     0.459000000000     0.041000000000     0          
Zr1      Zr     0.918420000000     0.500000000000     0.500000000000     0          
C1       C      0.896100000000     0.500000000000     0.396100000000     0          
C2       C      0.862300000000     0.500000000000     0.362300000000     0          
N1       N      0.795200000000     0.500000000000     0.295200000000     0          
C3       C      0.816600000000     0.500000000000     0.371400000000     0          
H1       H      0.806700000000     0.500000000000     0.401200000000     0          
C4       C      0.788100000000     0.500000000000     0.339500000000     0          
H2       H      0.757900000000     0.500000000000     0.348300000000     0          
O2       O      0.880200000000     0.500000000000     0.437000000000     0          
O1       O      0.959000000000     0.541000000000     0.541000000000     0          
Zr1      Zr     0.500000000000     0.918420000000     0.500000000000     0          
C1       C      0.500000000000     0.896100000000     0.396100000000     0          
C2       C      0.500000000000     0.862300000000     0.362300000000     0          
N1       N      0.500000000000     0.795200000000     0.295200000000     0          
C3       C      0.500000000000     0.816600000000     0.371400000000     0          
H1       H      0.500000000000     0.806700000000     0.401200000000     0          
C4       C      0.500000000000     0.788100000000     0.339500000000     0          
H2       H      0.500000000000     0.757900000000     0.348300000000     0          
O2       O      0.500000000000     0.880200000000     0.437000000000     0          
O1       O      0.459000000000     0.959000000000     0.541000000000     0          
Zr1      Zr     0.081580000000     0.500000000000     0.500000000000     0          
C1       C      0.103900000000     0.500000000000     0.396100000000     0          
C2       C      0.137700000000     0.500000000000     0.362300000000     0          
N1       N      0.204800000000     0.500000000000     0.295200000000     0          
C3       C      0.183400000000     0.500000000000     0.371400000000     0          
H1       H      0.193300000000     0.500000000000     0.401200000000     0          
C4       C      0.211900000000     0.500000000000     0.339500000000     0          
H2       H      0.242100000000     0.500000000000     0.348300000000     0          
O2       O      0.119800000000     0.500000000000     0.437000000000     0          
O1       O      0.041000000000     0.459000000000     0.541000000000     0          
Zr1      Zr     0.500000000000     0.081580000000     0.500000000000     0          
C1       C      0.500000000000     0.103900000000     0.396100000000     0          
C2       C      0.500000000000     0.137700000000     0.362300000000     0          
N1       N      0.500000000000     0.204800000000     0.295200000000     0          
C3       C      0.500000000000     0.183400000000     0.371400000000     0          
H1       H      0.500000000000     0.193300000000     0.401200000000     0          
C4       C      0.500000000000     0.211900000000     0.339500000000     0          
H2       H      0.500000000000     0.242100000000     0.348300000000     0          
O2       O      0.500000000000     0.119800000000     0.437000000000     0          
O1       O      0.541000000000     0.041000000000     0.541000000000     0          
C1       C      0.896100000000     0.500000000000     0.603900000000     0          
C2       C      0.862300000000     0.500000000000     0.637700000000     0          
N1       N      0.795200000000     0.500000000000     0.704800000000     0          
C3       C      0.816600000000     0.500000000000     0.628600000000     0          
H1       H      0.806700000000     0.500000000000     0.598800000000     0          
C4       C      0.788100000000     0.500000000000     0.660500000000     0          
H2       H      0.757900000000     0.500000000000     0.651700000000     0          
O2       O      0.880200000000     0.500000000000     0.563000000000     0          
O1       O      0.959000000000     0.459000000000     0.459000000000     0          
C1       C      0.500000000000     0.896100000000     0.603900000000     0          
C2       C      0.500000000000     0.862300000000     0.637700000000     0          
N1       N      0.500000000000     0.795200000000     0.704800000000     0          
C3       C      0.500000000000     0.816600000000     0.628600000000     0          
H1       H      0.500000000000     0.806700000000     0.598800000000     0          
C4       C      0.500000000000     0.788100000000     0.660500000000     0          
H2       H      0.500000000000     0.757900000000     0.651700000000     0          
O2       O      0.500000000000     0.880200000000     0.563000000000     0          
O1       O      0.541000000000     0.959000000000     0.459000000000     0          
C1       C      0.103900000000     0.500000000000     0.603900000000     0          
C2       C      0.137700000000     0.500000000000     0.637700000000     0          
N1       N      0.204800000000     0.500000000000     0.704800000000     0          
C3       C      0.183400000000     0.500000000000     0.628600000000     0          
H1       H      0.193300000000     0.500000000000     0.598800000000     0          
C4       C      0.211900000000     0.500000000000     0.660500000000     0          
H2       H      0.242100000000     0.500000000000     0.651700000000     0          
O2       O      0.119800000000     0.500000000000     0.563000000000     0          
O1       O      0.041000000000     0.541000000000     0.459000000000     0          
C1       C      0.500000000000     0.103900000000     0.603900000000     0          
C2       C      0.500000000000     0.137700000000     0.637700000000     0          
N1       N      0.500000000000     0.204800000000     0.704800000000     0          
C3       C      0.500000000000     0.183400000000     0.628600000000     0          
H1       H      0.500000000000     0.193300000000     0.598800000000     0          
C4       C      0.500000000000     0.211900000000     0.660500000000     0          
H2       H      0.500000000000     0.242100000000     0.651700000000     0          
O2       O      0.500000000000     0.119800000000     0.563000000000     0          
O1       O      0.459000000000     0.041000000000     0.459000000000     0          
C1       C      0.396100000000     0.896100000000     0.500000000000     0          
C2       C      0.362300000000     0.862300000000     0.500000000000     0          
N1       N      0.295200000000     0.795200000000     0.500000000000     0          
C3       C      0.371400000000     0.816600000000     0.500000000000     0          
H1       H      0.401200000000     0.806700000000     0.500000000000     0          
C4       C      0.339500000000     0.788100000000     0.500000000000     0          
H2       H      0.348300000000     0.757900000000     0.500000000000     0          
O2       O      0.437000000000     0.880200000000     0.500000000000     0          
Co1      Co     0.250000000000     0.750000000000     0.500000000000     0          
O1       O      0.541000000000     0.959000000000     0.541000000000     0          
C1       C      0.396100000000     0.103900000000     0.500000000000     0          
C2       C      0.362300000000     0.137700000000     0.500000000000     0          
N1       N      0.295200000000     0.204800000000     0.500000000000     0          
C3       C      0.371400000000     0.183400000000     0.500000000000     0          
H1       H      0.401200000000     0.193300000000     0.500000000000     0          
C4       C      0.339500000000     0.211900000000     0.500000000000     0          
H2       H      0.348300000000     0.242100000000     0.500000000000     0          
O2       O      0.437000000000     0.119800000000     0.500000000000     0          
Co1      Co     0.250000000000     0.250000000000     0.500000000000     0          
O1       O      0.541000000000     0.041000000000     0.459000000000     0          
C1       C      0.896100000000     0.396100000000     0.500000000000     0          
C2       C      0.862300000000     0.362300000000     0.500000000000     0          
N1       N      0.795200000000     0.295200000000     0.500000000000     0          
C3       C      0.816600000000     0.371400000000     0.500000000000     0          
H1       H      0.806700000000     0.401200000000     0.500000000000     0          
C4       C      0.788100000000     0.339500000000     0.500000000000     0          
H2       H      0.757900000000     0.348300000000     0.500000000000     0          
O2       O      0.880200000000     0.437000000000     0.500000000000     0          
Co1      Co     0.750000000000     0.250000000000     0.500000000000     0          
O1       O      0.959000000000     0.541000000000     0.459000000000     0          
C1       C      0.603900000000     0.896100000000     0.500000000000     0          
C2       C      0.637700000000     0.862300000000     0.500000000000     0          
N1       N      0.704800000000     0.795200000000     0.500000000000     0          
C3       C      0.628600000000     0.816600000000     0.500000000000     0          
H1       H      0.598800000000     0.806700000000     0.500000000000     0          
C4       C      0.660500000000     0.788100000000     0.500000000000     0          
H2       H      0.651700000000     0.757900000000     0.500000000000     0          
O2       O      0.563000000000     0.880200000000     0.500000000000     0          
Co1      Co     0.750000000000     0.750000000000     0.500000000000     0          
O1       O      0.459000000000     0.959000000000     0.459000000000     0          
C1       C      0.103900000000     0.603900000000     0.500000000000     0          
C2       C      0.137700000000     0.637700000000     0.500000000000     0          
N1       N      0.204800000000     0.704800000000     0.500000000000     0          
C3       C      0.183400000000     0.628600000000     0.500000000000     0          
H1       H      0.193300000000     0.598800000000     0.500000000000     0          
C4       C      0.211900000000     0.660500000000     0.500000000000     0          
H2       H      0.242100000000     0.651700000000     0.500000000000     0          
O2       O      0.119800000000     0.563000000000     0.500000000000     0          
O1       O      0.041000000000     0.459000000000     0.459000000000     0          
C1       C      0.603900000000     0.103900000000     0.500000000000     0          
C2       C      0.637700000000     0.137700000000     0.500000000000     0          
N1       N      0.704800000000     0.204800000000     0.500000000000     0          
C3       C      0.628600000000     0.183400000000     0.500000000000     0          
H1       H      0.598800000000     0.193300000000     0.500000000000     0          
C4       C      0.660500000000     0.211900000000     0.500000000000     0          
H2       H      0.651700000000     0.242100000000     0.500000000000     0          
O2       O      0.563000000000     0.119800000000     0.500000000000     0          
O1       O      0.459000000000     0.041000000000     0.541000000000     0          
C1       C      0.896100000000     0.603900000000     0.500000000000     0          
C2       C      0.862300000000     0.637700000000     0.500000000000     0          
N1       N      0.795200000000     0.704800000000     0.500000000000     0          
C3       C      0.816600000000     0.628600000000     0.500000000000     0          
H1       H      0.806700000000     0.598800000000     0.500000000000     0          
C4       C      0.788100000000     0.660500000000     0.500000000000     0          
H2       H      0.757900000000     0.651700000000     0.500000000000     0          
O2       O      0.880200000000     0.563000000000     0.500000000000     0          
O1       O      0.959000000000     0.459000000000     0.541000000000     0          
C1       C      0.103900000000     0.396100000000     0.500000000000     0          
C2       C      0.137700000000     0.362300000000     0.500000000000     0          
N1       N      0.204800000000     0.295200000000     0.500000000000     0          
C3       C      0.183400000000     0.371400000000     0.500000000000     0          
H1       H      0.193300000000     0.401200000000     0.500000000000     0          
C4       C      0.211900000000     0.339500000000     0.500000000000     0          
H2       H      0.242100000000     0.348300000000     0.500000000000     0          
O2       O      0.119800000000     0.437000000000     0.500000000000     0          
O1       O      0.041000000000     0.541000000000     0.541000000000     0          
Zr1      Zr     0.500000000000     0.000000000000     0.418420000000     0          
C3       C      0.500000000000     0.871400000000     0.316600000000     0          
H1       H      0.500000000000     0.901200000000     0.306700000000     0          
C4       C      0.500000000000     0.839500000000     0.288100000000     0          
H2       H      0.500000000000     0.848300000000     0.257900000000     0          
O2       O      0.500000000000     0.937000000000     0.380200000000     0          
C1       C      0.603900000000     0.000000000000     0.396100000000     0          
C2       C      0.637700000000     0.000000000000     0.362300000000     0          
N1       N      0.704800000000     0.000000000000     0.295200000000     0          
C3       C      0.628600000000     0.000000000000     0.316600000000     0          
H1       H      0.598800000000     0.000000000000     0.306700000000     0          
C4       C      0.660500000000     0.000000000000     0.288100000000     0          
H2       H      0.651700000000     0.000000000000     0.257900000000     0          
O2       O      0.563000000000     0.000000000000     0.380200000000     0          
Co1      Co     0.750000000000     0.000000000000     0.250000000000     0          
C3       C      0.500000000000     0.128600000000     0.316600000000     0          
H1       H      0.500000000000     0.098800000000     0.306700000000     0          
C4       C      0.500000000000     0.160500000000     0.288100000000     0          
H2       H      0.500000000000     0.151700000000     0.257900000000     0          
O2       O      0.500000000000     0.063000000000     0.380200000000     0          
C1       C      0.396100000000     0.000000000000     0.396100000000     0          
C2       C      0.362300000000     0.000000000000     0.362300000000     0          
N1       N      0.295200000000     0.000000000000     0.295200000000     0          
C3       C      0.371400000000     0.000000000000     0.316600000000     0          
H1       H      0.401200000000     0.000000000000     0.306700000000     0          
C4       C      0.339500000000     0.000000000000     0.288100000000     0          
H2       H      0.348300000000     0.000000000000     0.257900000000     0          
O2       O      0.437000000000     0.000000000000     0.380200000000     0          
Co1      Co     0.250000000000     0.000000000000     0.250000000000     0          
Zr1      Zr     0.500000000000     0.000000000000     0.581580000000     0          
C3       C      0.500000000000     0.128600000000     0.683400000000     0          
H1       H      0.500000000000     0.098800000000     0.693300000000     0          
C4       C      0.500000000000     0.160500000000     0.711900000000     0          
H2       H      0.500000000000     0.151700000000     0.742100000000     0          
O2       O      0.500000000000     0.063000000000     0.619800000000     0          
C1       C      0.396100000000     0.000000000000     0.603900000000     0          
C2       C      0.362300000000     0.000000000000     0.637700000000     0          
N1       N      0.295200000000     0.000000000000     0.704800000000     0          
C3       C      0.371400000000     0.000000000000     0.683400000000     0          
H1       H      0.401200000000     0.000000000000     0.693300000000     0          
C4       C      0.339500000000     0.000000000000     0.711900000000     0          
H2       H      0.348300000000     0.000000000000     0.742100000000     0          
O2       O      0.437000000000     0.000000000000     0.619800000000     0          
Co1      Co     0.250000000000     0.000000000000     0.750000000000     0          
C3       C      0.500000000000     0.871400000000     0.683400000000     0          
H1       H      0.500000000000     0.901200000000     0.693300000000     0          
C4       C      0.500000000000     0.839500000000     0.711900000000     0          
H2       H      0.500000000000     0.848300000000     0.742100000000     0          
O2       O      0.500000000000     0.937000000000     0.619800000000     0          
C1       C      0.603900000000     0.000000000000     0.603900000000     0          
C2       C      0.637700000000     0.000000000000     0.637700000000     0          
N1       N      0.704800000000     0.000000000000     0.704800000000     0          
C3       C      0.628600000000     0.000000000000     0.683400000000     0          
H1       H      0.598800000000     0.000000000000     0.693300000000     0          
C4       C      0.660500000000     0.000000000000     0.711900000000     0          
H2       H      0.651700000000     0.000000000000     0.742100000000     0          
O2       O      0.563000000000     0.000000000000     0.619800000000     0          
Co1      Co     0.750000000000     0.000000000000     0.750000000000     0          
Zr1      Zr     0.918420000000     0.000000000000     0.000000000000     0          
C1       C      0.896100000000     0.000000000000     0.896100000000     0          
C2       C      0.862300000000     0.000000000000     0.862300000000     0          
N1       N      0.795200000000     0.000000000000     0.795200000000     0          
C3       C      0.816600000000     0.000000000000     0.871400000000     0          
H1       H      0.806700000000     0.000000000000     0.901200000000     0          
C4       C      0.788100000000     0.000000000000     0.839500000000     0          
H2       H      0.757900000000     0.000000000000     0.848300000000     0          
O2       O      0.880200000000     0.000000000000     0.937000000000     0          
O1       O      0.959000000000     0.041000000000     0.041000000000     0          
Zr1      Zr     0.500000000000     0.418420000000     0.000000000000     0          
C3       C      0.500000000000     0.316600000000     0.871400000000     0          
H1       H      0.500000000000     0.306700000000     0.901200000000     0          
C4       C      0.500000000000     0.288100000000     0.839500000000     0          
H2       H      0.500000000000     0.257900000000     0.848300000000     0          
O2       O      0.500000000000     0.380200000000     0.937000000000     0          
Zr1      Zr     0.081580000000     0.000000000000     0.000000000000     0          
C1       C      0.103900000000     0.000000000000     0.896100000000     0          
C2       C      0.137700000000     0.000000000000     0.862300000000     0          
N1       N      0.204800000000     0.000000000000     0.795200000000     0          
C3       C      0.183400000000     0.000000000000     0.871400000000     0          
H1       H      0.193300000000     0.000000000000     0.901200000000     0          
C4       C      0.211900000000     0.000000000000     0.839500000000     0          
H2       H      0.242100000000     0.000000000000     0.848300000000     0          
O2       O      0.119800000000     0.000000000000     0.937000000000     0          
O1       O      0.041000000000     0.959000000000     0.041000000000     0          
Zr1      Zr     0.500000000000     0.581580000000     0.000000000000     0          
C3       C      0.500000000000     0.683400000000     0.871400000000     0          
H1       H      0.500000000000     0.693300000000     0.901200000000     0          
C4       C      0.500000000000     0.711900000000     0.839500000000     0          
H2       H      0.500000000000     0.742100000000     0.848300000000     0          
O2       O      0.500000000000     0.619800000000     0.937000000000     0          
C1       C      0.896100000000     0.000000000000     0.103900000000     0          
C2       C      0.862300000000     0.000000000000     0.137700000000     0          
N1       N      0.795200000000     0.000000000000     0.204800000000     0          
C3       C      0.816600000000     0.000000000000     0.128600000000     0          
H1       H      0.806700000000     0.000000000000     0.098800000000     0          
C4       C      0.788100000000     0.000000000000     0.160500000000     0          
H2       H      0.757900000000     0.000000000000     0.151700000000     0          
O2       O      0.880200000000     0.000000000000     0.063000000000     0          
O1       O      0.959000000000     0.959000000000     0.959000000000     0          
C3       C      0.500000000000     0.316600000000     0.128600000000     0          
H1       H      0.500000000000     0.306700000000     0.098800000000     0          
C4       C      0.500000000000     0.288100000000     0.160500000000     0          
H2       H      0.500000000000     0.257900000000     0.151700000000     0          
O2       O      0.500000000000     0.380200000000     0.063000000000     0          
C1       C      0.103900000000     0.000000000000     0.103900000000     0          
C2       C      0.137700000000     0.000000000000     0.137700000000     0          
N1       N      0.204800000000     0.000000000000     0.204800000000     0          
C3       C      0.183400000000     0.000000000000     0.128600000000     0          
H1       H      0.193300000000     0.000000000000     0.098800000000     0          
C4       C      0.211900000000     0.000000000000     0.160500000000     0          
H2       H      0.242100000000     0.000000000000     0.151700000000     0          
O2       O      0.119800000000     0.000000000000     0.063000000000     0          
O1       O      0.041000000000     0.041000000000     0.959000000000     0          
C3       C      0.500000000000     0.683400000000     0.128600000000     0          
H1       H      0.500000000000     0.693300000000     0.098800000000     0          
C4       C      0.500000000000     0.711900000000     0.160500000000     0          
H2       H      0.500000000000     0.742100000000     0.151700000000     0          
O2       O      0.500000000000     0.619800000000     0.063000000000     0          
C1       C      0.396100000000     0.396100000000     0.000000000000     0          
C2       C      0.362300000000     0.362300000000     0.000000000000     0          
N1       N      0.295200000000     0.295200000000     0.000000000000     0          
C3       C      0.371400000000     0.316600000000     0.000000000000     0          
H1       H      0.401200000000     0.306700000000     0.000000000000     0          
C4       C      0.339500000000     0.288100000000     0.000000000000     0          
H2       H      0.348300000000     0.257900000000     0.000000000000     0          
O2       O      0.437000000000     0.380200000000     0.000000000000     0          
Co1      Co     0.250000000000     0.250000000000     0.000000000000     0          
C1       C      0.396100000000     0.603900000000     0.000000000000     0          
C2       C      0.362300000000     0.637700000000     0.000000000000     0          
N1       N      0.295200000000     0.704800000000     0.000000000000     0          
C3       C      0.371400000000     0.683400000000     0.000000000000     0          
H1       H      0.401200000000     0.693300000000     0.000000000000     0          
C4       C      0.339500000000     0.711900000000     0.000000000000     0          
H2       H      0.348300000000     0.742100000000     0.000000000000     0          
O2       O      0.437000000000     0.619800000000     0.000000000000     0          
Co1      Co     0.250000000000     0.750000000000     0.000000000000     0          
C1       C      0.896100000000     0.896100000000     0.000000000000     0          
C2       C      0.862300000000     0.862300000000     0.000000000000     0          
N1       N      0.795200000000     0.795200000000     0.000000000000     0          
C3       C      0.816600000000     0.871400000000     0.000000000000     0          
H1       H      0.806700000000     0.901200000000     0.000000000000     0          
C4       C      0.788100000000     0.839500000000     0.000000000000     0          
H2       H      0.757900000000     0.848300000000     0.000000000000     0          
O2       O      0.880200000000     0.937000000000     0.000000000000     0          
Co1      Co     0.750000000000     0.750000000000     0.000000000000     0          
O1       O      0.959000000000     0.041000000000     0.959000000000     0          
C1       C      0.603900000000     0.396100000000     0.000000000000     0          
C2       C      0.637700000000     0.362300000000     0.000000000000     0          
N1       N      0.704800000000     0.295200000000     0.000000000000     0          
C3       C      0.628600000000     0.316600000000     0.000000000000     0          
H1       H      0.598800000000     0.306700000000     0.000000000000     0          
C4       C      0.660500000000     0.288100000000     0.000000000000     0          
H2       H      0.651700000000     0.257900000000     0.000000000000     0          
O2       O      0.563000000000     0.380200000000     0.000000000000     0          
Co1      Co     0.750000000000     0.250000000000     0.000000000000     0          
C1       C      0.103900000000     0.103900000000     0.000000000000     0          
C2       C      0.137700000000     0.137700000000     0.000000000000     0          
N1       N      0.204800000000     0.204800000000     0.000000000000     0          
C3       C      0.183400000000     0.128600000000     0.000000000000     0          
H1       H      0.193300000000     0.098800000000     0.000000000000     0          
C4       C      0.211900000000     0.160500000000     0.000000000000     0          
H2       H      0.242100000000     0.151700000000     0.000000000000     0          
O2       O      0.119800000000     0.063000000000     0.000000000000     0          
O1       O      0.041000000000     0.959000000000     0.959000000000     0          
C1       C      0.603900000000     0.603900000000     0.000000000000     0          
C2       C      0.637700000000     0.637700000000     0.000000000000     0          
N1       N      0.704800000000     0.704800000000     0.000000000000     0          
C3       C      0.628600000000     0.683400000000     0.000000000000     0          
H1       H      0.598800000000     0.693300000000     0.000000000000     0          
C4       C      0.660500000000     0.711900000000     0.000000000000     0          
H2       H      0.651700000000     0.742100000000     0.000000000000     0          
O2       O      0.563000000000     0.619800000000     0.000000000000     0          
C1       C      0.896100000000     0.103900000000     0.000000000000     0          
C2       C      0.862300000000     0.137700000000     0.000000000000     0          
N1       N      0.795200000000     0.204800000000     0.000000000000     0          
C3       C      0.816600000000     0.128600000000     0.000000000000     0          
H1       H      0.806700000000     0.098800000000     0.000000000000     0          
C4       C      0.788100000000     0.160500000000     0.000000000000     0          
H2       H      0.757900000000     0.151700000000     0.000000000000     0          
O2       O      0.880200000000     0.063000000000     0.000000000000     0          
O1       O      0.959000000000     0.959000000000     0.041000000000     0          
C1       C      0.103900000000     0.896100000000     0.000000000000     0          
C2       C      0.137700000000     0.862300000000     0.000000000000     0          
N1       N      0.204800000000     0.795200000000     0.000000000000     0          
C3       C      0.183400000000     0.871400000000     0.000000000000     0          
H1       H      0.193300000000     0.901200000000     0.000000000000     0          
C4       C      0.211900000000     0.839500000000     0.000000000000     0          
H2       H      0.242100000000     0.848300000000     0.000000000000     0          
O2       O      0.119800000000     0.937000000000     0.000000000000     0          
O1       O      0.041000000000     0.041000000000     0.041000000000     0          
Zr1      Zr     0.000000000000     0.500000000000     0.418420000000     0          
C1       C      0.000000000000     0.396100000000     0.396100000000     0          
C2       C      0.000000000000     0.362300000000     0.362300000000     0          
N1       N      0.000000000000     0.295200000000     0.295200000000     0          
C3       C      0.000000000000     0.371400000000     0.316600000000     0          
H1       H      0.000000000000     0.401200000000     0.306700000000     0          
C4       C      0.000000000000     0.339500000000     0.288100000000     0          
H2       H      0.000000000000     0.348300000000     0.257900000000     0          
O2       O      0.000000000000     0.437000000000     0.380200000000     0          
Co1      Co     0.000000000000     0.250000000000     0.250000000000     0          
C3       C      0.128600000000     0.500000000000     0.316600000000     0          
H1       H      0.098800000000     0.500000000000     0.306700000000     0          
C4       C      0.160500000000     0.500000000000     0.288100000000     0          
H2       H      0.151700000000     0.500000000000     0.257900000000     0          
O2       O      0.063000000000     0.500000000000     0.380200000000     0          
C1       C      0.000000000000     0.603900000000     0.396100000000     0          
C2       C      0.000000000000     0.637700000000     0.362300000000     0          
N1       N      0.000000000000     0.704800000000     0.295200000000     0          
C3       C      0.000000000000     0.628600000000     0.316600000000     0          
H1       H      0.000000000000     0.598800000000     0.306700000000     0          
C4       C      0.000000000000     0.660500000000     0.288100000000     0          
H2       H      0.000000000000     0.651700000000     0.257900000000     0          
O2       O      0.000000000000     0.563000000000     0.380200000000     0          
Co1      Co     0.000000000000     0.750000000000     0.250000000000     0          
C3       C      0.871400000000     0.500000000000     0.316600000000     0          
H1       H      0.901200000000     0.500000000000     0.306700000000     0          
C4       C      0.839500000000     0.500000000000     0.288100000000     0          
H2       H      0.848300000000     0.500000000000     0.257900000000     0          
O2       O      0.937000000000     0.500000000000     0.380200000000     0          
Zr1      Zr     0.000000000000     0.500000000000     0.581580000000     0          
C1       C      0.000000000000     0.603900000000     0.603900000000     0          
C2       C      0.000000000000     0.637700000000     0.637700000000     0          
N1       N      0.000000000000     0.704800000000     0.704800000000     0          
C3       C      0.000000000000     0.628600000000     0.683400000000     0          
H1       H      0.000000000000     0.598800000000     0.693300000000     0          
C4       C      0.000000000000     0.660500000000     0.711900000000     0          
H2       H      0.000000000000     0.651700000000     0.742100000000     0          
O2       O      0.000000000000     0.563000000000     0.619800000000     0          
Co1      Co     0.000000000000     0.750000000000     0.750000000000     0          
C3       C      0.871400000000     0.500000000000     0.683400000000     0          
H1       H      0.901200000000     0.500000000000     0.693300000000     0          
C4       C      0.839500000000     0.500000000000     0.711900000000     0          
H2       H      0.848300000000     0.500000000000     0.742100000000     0          
O2       O      0.937000000000     0.500000000000     0.619800000000     0          
C1       C      0.000000000000     0.396100000000     0.603900000000     0          
C2       C      0.000000000000     0.362300000000     0.637700000000     0          
N1       N      0.000000000000     0.295200000000     0.704800000000     0          
C3       C      0.000000000000     0.371400000000     0.683400000000     0          
H1       H      0.000000000000     0.401200000000     0.693300000000     0          
C4       C      0.000000000000     0.339500000000     0.711900000000     0          
H2       H      0.000000000000     0.348300000000     0.742100000000     0          
O2       O      0.000000000000     0.437000000000     0.619800000000     0          
Co1      Co     0.000000000000     0.250000000000     0.750000000000     0          
C3       C      0.128600000000     0.500000000000     0.683400000000     0          
H1       H      0.098800000000     0.500000000000     0.693300000000     0          
C4       C      0.160500000000     0.500000000000     0.711900000000     0          
H2       H      0.151700000000     0.500000000000     0.742100000000     0          
O2       O      0.063000000000     0.500000000000     0.619800000000     0          
Zr1      Zr     0.418420000000     0.500000000000     0.000000000000     0          
C3       C      0.316600000000     0.500000000000     0.871400000000     0          
H1       H      0.306700000000     0.500000000000     0.901200000000     0          
C4       C      0.288100000000     0.500000000000     0.839500000000     0          
H2       H      0.257900000000     0.500000000000     0.848300000000     0          
O2       O      0.380200000000     0.500000000000     0.937000000000     0          
Zr1      Zr     0.000000000000     0.918420000000     0.000000000000     0          
C1       C      0.000000000000     0.896100000000     0.896100000000     0          
C2       C      0.000000000000     0.862300000000     0.862300000000     0          
N1       N      0.000000000000     0.795200000000     0.795200000000     0          
C3       C      0.000000000000     0.816600000000     0.871400000000     0          
H1       H      0.000000000000     0.806700000000     0.901200000000     0          
C4       C      0.000000000000     0.788100000000     0.839500000000     0          
H2       H      0.000000000000     0.757900000000     0.848300000000     0          
O2       O      0.000000000000     0.880200000000     0.937000000000     0          
Zr1      Zr     0.581580000000     0.500000000000     0.000000000000     0          
C3       C      0.683400000000     0.500000000000     0.871400000000     0          
H1       H      0.693300000000     0.500000000000     0.901200000000     0          
C4       C      0.711900000000     0.500000000000     0.839500000000     0          
H2       H      0.742100000000     0.500000000000     0.848300000000     0          
O2       O      0.619800000000     0.500000000000     0.937000000000     0          
Zr1      Zr     0.000000000000     0.081580000000     0.000000000000     0          
C1       C      0.000000000000     0.103900000000     0.896100000000     0          
C2       C      0.000000000000     0.137700000000     0.862300000000     0          
N1       N      0.000000000000     0.204800000000     0.795200000000     0          
C3       C      0.000000000000     0.183400000000     0.871400000000     0          
H1       H      0.000000000000     0.193300000000     0.901200000000     0          
C4       C      0.000000000000     0.211900000000     0.839500000000     0          
H2       H      0.000000000000     0.242100000000     0.848300000000     0          
O2       O      0.000000000000     0.119800000000     0.937000000000     0          
C3       C      0.316600000000     0.500000000000     0.128600000000     0          
H1       H      0.306700000000     0.500000000000     0.098800000000     0          
C4       C      0.288100000000     0.500000000000     0.160500000000     0          
H2       H      0.257900000000     0.500000000000     0.151700000000     0          
O2       O      0.380200000000     0.500000000000     0.063000000000     0          
C1       C      0.000000000000     0.896100000000     0.103900000000     0          
C2       C      0.000000000000     0.862300000000     0.137700000000     0          
N1       N      0.000000000000     0.795200000000     0.204800000000     0          
C3       C      0.000000000000     0.816600000000     0.128600000000     0          
H1       H      0.000000000000     0.806700000000     0.098800000000     0          
C4       C      0.000000000000     0.788100000000     0.160500000000     0          
H2       H      0.000000000000     0.757900000000     0.151700000000     0          
O2       O      0.000000000000     0.880200000000     0.063000000000     0          
C3       C      0.683400000000     0.500000000000     0.128600000000     0          
H1       H      0.693300000000     0.500000000000     0.098800000000     0          
C4       C      0.711900000000     0.500000000000     0.160500000000     0          
H2       H      0.742100000000     0.500000000000     0.151700000000     0          
O2       O      0.619800000000     0.500000000000     0.063000000000     0          
C1       C      0.000000000000     0.103900000000     0.103900000000     0          
C2       C      0.000000000000     0.137700000000     0.137700000000     0          
N1       N      0.000000000000     0.204800000000     0.204800000000     0          
C3       C      0.000000000000     0.183400000000     0.128600000000     0          
H1       H      0.000000000000     0.193300000000     0.098800000000     0          
C4       C      0.000000000000     0.211900000000     0.160500000000     0          
H2       H      0.000000000000     0.242100000000     0.151700000000     0          
O2       O      0.000000000000     0.119800000000     0.063000000000     0          
C3       C      0.871400000000     0.816600000000     0.000000000000     0          
H1       H      0.901200000000     0.806700000000     0.000000000000     0          
C4       C      0.839500000000     0.788100000000     0.000000000000     0          
H2       H      0.848300000000     0.757900000000     0.000000000000     0          
O2       O      0.937000000000     0.880200000000     0.000000000000     0          
C3       C      0.871400000000     0.183400000000     0.000000000000     0          
H1       H      0.901200000000     0.193300000000     0.000000000000     0          
C4       C      0.839500000000     0.211900000000     0.000000000000     0          
H2       H      0.848300000000     0.242100000000     0.000000000000     0          
O2       O      0.937000000000     0.119800000000     0.000000000000     0          
C3       C      0.316600000000     0.371400000000     0.000000000000     0          
H1       H      0.306700000000     0.401200000000     0.000000000000     0          
C4       C      0.288100000000     0.339500000000     0.000000000000     0          
H2       H      0.257900000000     0.348300000000     0.000000000000     0          
O2       O      0.380200000000     0.437000000000     0.000000000000     0          
C3       C      0.128600000000     0.816600000000     0.000000000000     0          
H1       H      0.098800000000     0.806700000000     0.000000000000     0          
C4       C      0.160500000000     0.788100000000     0.000000000000     0          
H2       H      0.151700000000     0.757900000000     0.000000000000     0          
O2       O      0.063000000000     0.880200000000     0.000000000000     0          
C3       C      0.683400000000     0.628600000000     0.000000000000     0          
H1       H      0.693300000000     0.598800000000     0.000000000000     0          
C4       C      0.711900000000     0.660500000000     0.000000000000     0          
H2       H      0.742100000000     0.651700000000     0.000000000000     0          
O2       O      0.619800000000     0.563000000000     0.000000000000     0          
C3       C      0.128600000000     0.183400000000     0.000000000000     0          
H1       H      0.098800000000     0.193300000000     0.000000000000     0          
C4       C      0.160500000000     0.211900000000     0.000000000000     0          
H2       H      0.151700000000     0.242100000000     0.000000000000     0          
O2       O      0.063000000000     0.119800000000     0.000000000000     0          
C3       C      0.316600000000     0.628600000000     0.000000000000     0          
H1       H      0.306700000000     0.598800000000     0.000000000000     0          
C4       C      0.288100000000     0.660500000000     0.000000000000     0          
H2       H      0.257900000000     0.651700000000     0.000000000000     0          
O2       O      0.380200000000     0.563000000000     0.000000000000     0          
C3       C      0.683400000000     0.371400000000     0.000000000000     0          
H1       H      0.693300000000     0.401200000000     0.000000000000     0          
C4       C      0.711900000000     0.339500000000     0.000000000000     0          
H2       H      0.742100000000     0.348300000000     0.000000000000     0          
O2       O      0.619800000000     0.437000000000     0.000000000000     0          
Zr1      Zr     0.000000000000     0.000000000000     0.918420000000     0          
C3       C      0.000000000000     0.871400000000     0.816600000000     0          
H1       H      0.000000000000     0.901200000000     0.806700000000     0          
C4       C      0.000000000000     0.839500000000     0.788100000000     0          
H2       H      0.000000000000     0.848300000000     0.757900000000     0          
O2       O      0.000000000000     0.937000000000     0.880200000000     0          
C3       C      0.128600000000     0.000000000000     0.816600000000     0          
H1       H      0.098800000000     0.000000000000     0.806700000000     0          
C4       C      0.160500000000     0.000000000000     0.788100000000     0          
H2       H      0.151700000000     0.000000000000     0.757900000000     0          
O2       O      0.063000000000     0.000000000000     0.880200000000     0          
C3       C      0.000000000000     0.128600000000     0.816600000000     0          
H1       H      0.000000000000     0.098800000000     0.806700000000     0          
C4       C      0.000000000000     0.160500000000     0.788100000000     0          
H2       H      0.000000000000     0.151700000000     0.757900000000     0          
O2       O      0.000000000000     0.063000000000     0.880200000000     0          
C3       C      0.871400000000     0.000000000000     0.816600000000     0          
H1       H      0.901200000000     0.000000000000     0.806700000000     0          
C4       C      0.839500000000     0.000000000000     0.788100000000     0          
H2       H      0.848300000000     0.000000000000     0.757900000000     0          
O2       O      0.937000000000     0.000000000000     0.880200000000     0          
Zr1      Zr     0.000000000000     0.000000000000     0.081580000000     0          
C3       C      0.000000000000     0.128600000000     0.183400000000     0          
H1       H      0.000000000000     0.098800000000     0.193300000000     0          
C4       C      0.000000000000     0.160500000000     0.211900000000     0          
H2       H      0.000000000000     0.151700000000     0.242100000000     0          
O2       O      0.000000000000     0.063000000000     0.119800000000     0          
C3       C      0.871400000000     0.000000000000     0.183400000000     0          
H1       H      0.901200000000     0.000000000000     0.193300000000     0          
C4       C      0.839500000000     0.000000000000     0.211900000000     0          
H2       H      0.848300000000     0.000000000000     0.242100000000     0          
O2       O      0.937000000000     0.000000000000     0.119800000000     0          
C3       C      0.000000000000     0.871400000000     0.183400000000     0          
H1       H      0.000000000000     0.901200000000     0.193300000000     0          
C4       C      0.000000000000     0.839500000000     0.211900000000     0          
H2       H      0.000000000000     0.848300000000     0.242100000000     0          
O2       O      0.000000000000     0.937000000000     0.119800000000     0          
C3       C      0.128600000000     0.000000000000     0.183400000000     0          
H1       H      0.098800000000     0.000000000000     0.193300000000     0          
C4       C      0.160500000000     0.000000000000     0.211900000000     0          
H2       H      0.151700000000     0.000000000000     0.242100000000     0          
O2       O      0.063000000000     0.000000000000     0.119800000000     0          
Zr1      Zr     0.418420000000     0.000000000000     0.500000000000     0          
C3       C      0.316600000000     0.000000000000     0.371400000000     0          
H1       H      0.306700000000     0.000000000000     0.401200000000     0          
C4       C      0.288100000000     0.000000000000     0.339500000000     0          
H2       H      0.257900000000     0.000000000000     0.348300000000     0          
O2       O      0.380200000000     0.000000000000     0.437000000000     0          
Zr1      Zr     0.000000000000     0.418420000000     0.500000000000     0          
C3       C      0.000000000000     0.316600000000     0.371400000000     0          
H1       H      0.000000000000     0.306700000000     0.401200000000     0          
C4       C      0.000000000000     0.288100000000     0.339500000000     0          
H2       H      0.000000000000     0.257900000000     0.348300000000     0          
O2       O      0.000000000000     0.380200000000     0.437000000000     0          
Zr1      Zr     0.581580000000     0.000000000000     0.500000000000     0          
C3       C      0.683400000000     0.000000000000     0.371400000000     0          
H1       H      0.693300000000     0.000000000000     0.401200000000     0          
C4       C      0.711900000000     0.000000000000     0.339500000000     0          
H2       H      0.742100000000     0.000000000000     0.348300000000     0          
O2       O      0.619800000000     0.000000000000     0.437000000000     0          
Zr1      Zr     0.000000000000     0.581580000000     0.500000000000     0          
C3       C      0.000000000000     0.683400000000     0.371400000000     0          
H1       H      0.000000000000     0.693300000000     0.401200000000     0          
C4       C      0.000000000000     0.711900000000     0.339500000000     0          
H2       H      0.000000000000     0.742100000000     0.348300000000     0          
O2       O      0.000000000000     0.619800000000     0.437000000000     0          
C3       C      0.316600000000     0.000000000000     0.628600000000     0          
H1       H      0.306700000000     0.000000000000     0.598800000000     0          
C4       C      0.288100000000     0.000000000000     0.660500000000     0          
H2       H      0.257900000000     0.000000000000     0.651700000000     0          
O2       O      0.380200000000     0.000000000000     0.563000000000     0          
C3       C      0.000000000000     0.316600000000     0.628600000000     0          
H1       H      0.000000000000     0.306700000000     0.598800000000     0          
C4       C      0.000000000000     0.288100000000     0.660500000000     0          
H2       H      0.000000000000     0.257900000000     0.651700000000     0          
O2       O      0.000000000000     0.380200000000     0.563000000000     0          
C3       C      0.683400000000     0.000000000000     0.628600000000     0          
H1       H      0.693300000000     0.000000000000     0.598800000000     0          
C4       C      0.711900000000     0.000000000000     0.660500000000     0          
H2       H      0.742100000000     0.000000000000     0.651700000000     0          
O2       O      0.619800000000     0.000000000000     0.563000000000     0          
C3       C      0.000000000000     0.683400000000     0.628600000000     0          
H1       H      0.000000000000     0.693300000000     0.598800000000     0          
C4       C      0.000000000000     0.711900000000     0.660500000000     0          
H2       H      0.000000000000     0.742100000000     0.651700000000     0          
O2       O      0.000000000000     0.619800000000     0.563000000000     0          
C3       C      0.871400000000     0.316600000000     0.500000000000     0          
H1       H      0.901200000000     0.306700000000     0.500000000000     0          
C4       C      0.839500000000     0.288100000000     0.500000000000     0          
H2       H      0.848300000000     0.257900000000     0.500000000000     0          
O2       O      0.937000000000     0.380200000000     0.500000000000     0          
C3       C      0.871400000000     0.683400000000     0.500000000000     0          
H1       H      0.901200000000     0.693300000000     0.500000000000     0          
C4       C      0.839500000000     0.711900000000     0.500000000000     0          
H2       H      0.848300000000     0.742100000000     0.500000000000     0          
O2       O      0.937000000000     0.619800000000     0.500000000000     0          
C3       C      0.316600000000     0.871400000000     0.500000000000     0          
H1       H      0.306700000000     0.901200000000     0.500000000000     0          
C4       C      0.288100000000     0.839500000000     0.500000000000     0          
H2       H      0.257900000000     0.848300000000     0.500000000000     0          
O2       O      0.380200000000     0.937000000000     0.500000000000     0          
C3       C      0.128600000000     0.316600000000     0.500000000000     0          
H1       H      0.098800000000     0.306700000000     0.500000000000     0          
C4       C      0.160500000000     0.288100000000     0.500000000000     0          
H2       H      0.151700000000     0.257900000000     0.500000000000     0          
O2       O      0.063000000000     0.380200000000     0.500000000000     0          
C3       C      0.683400000000     0.128600000000     0.500000000000     0          
H1       H      0.693300000000     0.098800000000     0.500000000000     0          
C4       C      0.711900000000     0.160500000000     0.500000000000     0          
H2       H      0.742100000000     0.151700000000     0.500000000000     0          
O2       O      0.619800000000     0.063000000000     0.500000000000     0          
C3       C      0.128600000000     0.683400000000     0.500000000000     0          
H1       H      0.098800000000     0.693300000000     0.500000000000     0          
C4       C      0.160500000000     0.711900000000     0.500000000000     0          
H2       H      0.151700000000     0.742100000000     0.500000000000     0          
O2       O      0.063000000000     0.619800000000     0.500000000000     0          
C3       C      0.316600000000     0.128600000000     0.500000000000     0          
H1       H      0.306700000000     0.098800000000     0.500000000000     0          
C4       C      0.288100000000     0.160500000000     0.500000000000     0          
H2       H      0.257900000000     0.151700000000     0.500000000000     0          
O2       O      0.380200000000     0.063000000000     0.500000000000     0          
C3       C      0.683400000000     0.871400000000     0.500000000000     0          
H1       H      0.693300000000     0.901200000000     0.500000000000     0          
C4       C      0.711900000000     0.839500000000     0.500000000000     0          
H2       H      0.742100000000     0.848300000000     0.500000000000     0          
O2       O      0.619800000000     0.937000000000     0.500000000000     0          


