data_FOTNIN

_audit_creation_method RASPA-1.0
_audit_creation_date 2020-4-3
_audit_author_name 'Rocio Bueno-Perez'

_cell_length_a    55.5686
_cell_length_b    55.5686
_cell_length_c    55.5686
_cell_angle_alpha 90
_cell_angle_beta  90
_cell_angle_gamma 90
_cell_volume      171589

_symmetry_cell_setting          cubic
_symmetry_space_group_name_Hall 'P 1'
_symmetry_space_group_name_H-M  'P 1'
_symmetry_Int_Tables_number     1

_symmetry_equiv_pos_as_xyz 'x,y,z'

loop_
_atom_site_label
_atom_site_type_symbol
_atom_site_fract_x
_atom_site_fract_y
_atom_site_fract_z
_atom_site_charge
O5       O      0.678930000000     0.079290000000     0.351110000000     0          
O6       O      0.665370000000     0.065530000000     0.404820000000     0          
O7       O      0.657820000000     0.128750000000     0.312220000000     0          
C3       C      0.673120000000     0.142190000000     0.265870000000     0          
C4       C      0.681520000000     0.150600000000     0.243590000000     0          
H1       H      0.682330000000     0.127100000000     0.274250000000     0          
H2       H      0.696920000000     0.141690000000     0.235440000000     0          
O8       O      0.619630000000     0.090560000000     0.436630000000     0          
C9       C      0.606190000000     0.075260000000     0.482980000000     0          
C10      C      0.597780000000     0.066860000000     0.505260000000     0          
H3       H      0.621280000000     0.066050000000     0.474600000000     0          
H4       H      0.606690000000     0.051460000000     0.513410000000     0          
Zr1      Zr     0.654450000000     0.109000000000     0.345550000000     0          
O1       O      0.631840000000     0.086840000000     0.368160000000     0          
Zr2      Zr     0.640520000000     0.095180000000     0.404820000000     0          
O2       O      0.662730000000     0.117520000000     0.382480000000     0          
O3       O      0.646450000000     0.146450000000     0.353550000000     0          
O4       O      0.603180000000     0.103180000000     0.396820000000     0          
C1       C      0.646070000000     0.146070000000     0.302090000000     0          
C2       C      0.653570000000     0.153570000000     0.277460000000     0          
C5       C      0.670600000000     0.170600000000     0.232350000000     0          
C6       C      0.680680000000     0.180680000000     0.209650000000     0          
C7       C      0.602310000000     0.102310000000     0.446760000000     0          
C8       C      0.594810000000     0.094810000000     0.471390000000     0          
C11      C      0.577780000000     0.077780000000     0.516500000000     0          
C12      C      0.567700000000     0.067700000000     0.539200000000     0          
N1       N      0.670810000000     0.199530000000     0.199530000000     0          
N2       N      0.549320000000     0.077570000000     0.549320000000     0          
O5       O      0.079290000000     0.321070000000     0.648890000000     0          
O6       O      0.065530000000     0.334630000000     0.595180000000     0          
O7       O      0.128750000000     0.342180000000     0.687780000000     0          
C3       C      0.142190000000     0.326880000000     0.734130000000     0          
C4       C      0.150600000000     0.318480000000     0.756410000000     0          
H1       H      0.127100000000     0.317670000000     0.725750000000     0          
H2       H      0.141690000000     0.303080000000     0.764560000000     0          
O8       O      0.090560000000     0.380370000000     0.563370000000     0          
C9       C      0.075260000000     0.393810000000     0.517020000000     0          
C10      C      0.066860000000     0.402220000000     0.494740000000     0          
H3       H      0.066050000000     0.378720000000     0.525400000000     0          
H4       H      0.051460000000     0.393310000000     0.486590000000     0          
Zr1      Zr     0.109000000000     0.345550000000     0.654450000000     0          
O1       O      0.086840000000     0.368160000000     0.631840000000     0          
Zr2      Zr     0.095180000000     0.359480000000     0.595180000000     0          
O2       O      0.117520000000     0.337270000000     0.617520000000     0          
O3       O      0.146450000000     0.353550000000     0.646450000000     0          
O4       O      0.103180000000     0.396820000000     0.603180000000     0          
C1       C      0.146070000000     0.353930000000     0.697910000000     0          
C2       C      0.153570000000     0.346430000000     0.722540000000     0          
C5       C      0.170600000000     0.329400000000     0.767650000000     0          
C6       C      0.180680000000     0.319320000000     0.790350000000     0          
C7       C      0.102310000000     0.397690000000     0.553240000000     0          
C8       C      0.094810000000     0.405190000000     0.528610000000     0          
C11      C      0.077780000000     0.422220000000     0.483500000000     0          
C12      C      0.067700000000     0.432300000000     0.460800000000     0          
N1       N      0.199530000000     0.329190000000     0.800470000000     0          
N2       N      0.077570000000     0.450680000000     0.450680000000     0          
O5       O      0.321070000000     0.920710000000     0.351110000000     0          
O6       O      0.334630000000     0.934470000000     0.404820000000     0          
O7       O      0.342180000000     0.871250000000     0.312220000000     0          
C3       C      0.326880000000     0.857810000000     0.265870000000     0          
C4       C      0.318480000000     0.849400000000     0.243590000000     0          
H1       H      0.317670000000     0.872900000000     0.274250000000     0          
H2       H      0.303080000000     0.858310000000     0.235440000000     0          
O8       O      0.380370000000     0.909440000000     0.436630000000     0          
C9       C      0.393810000000     0.924740000000     0.482980000000     0          
C10      C      0.402220000000     0.933140000000     0.505260000000     0          
H3       H      0.378720000000     0.933950000000     0.474600000000     0          
H4       H      0.393310000000     0.948540000000     0.513410000000     0          
Zr1      Zr     0.345550000000     0.891000000000     0.345550000000     0          
O1       O      0.368160000000     0.913160000000     0.368160000000     0          
Zr2      Zr     0.359480000000     0.904820000000     0.404820000000     0          
O2       O      0.337270000000     0.882480000000     0.382480000000     0          
O3       O      0.353550000000     0.853550000000     0.353550000000     0          
O4       O      0.396820000000     0.896820000000     0.396820000000     0          
C1       C      0.353930000000     0.853930000000     0.302090000000     0          
C2       C      0.346430000000     0.846430000000     0.277460000000     0          
C5       C      0.329400000000     0.829400000000     0.232350000000     0          
C6       C      0.319320000000     0.819320000000     0.209650000000     0          
C7       C      0.397690000000     0.897690000000     0.446760000000     0          
C8       C      0.405190000000     0.905190000000     0.471390000000     0          
C11      C      0.422220000000     0.922220000000     0.516500000000     0          
C12      C      0.432300000000     0.932300000000     0.539200000000     0          
N1       N      0.329190000000     0.800470000000     0.199530000000     0          
N2       N      0.450680000000     0.922430000000     0.549320000000     0          
O5       O      0.920710000000     0.678930000000     0.648890000000     0          
O6       O      0.934470000000     0.665370000000     0.595180000000     0          
O7       O      0.871250000000     0.657820000000     0.687780000000     0          
C3       C      0.857810000000     0.673120000000     0.734130000000     0          
C4       C      0.849400000000     0.681520000000     0.756410000000     0          
H1       H      0.872900000000     0.682330000000     0.725750000000     0          
H2       H      0.858310000000     0.696920000000     0.764560000000     0          
O8       O      0.909440000000     0.619630000000     0.563370000000     0          
C9       C      0.924740000000     0.606190000000     0.517020000000     0          
C10      C      0.933140000000     0.597780000000     0.494740000000     0          
H3       H      0.933950000000     0.621280000000     0.525400000000     0          
H4       H      0.948540000000     0.606690000000     0.486590000000     0          
Zr1      Zr     0.891000000000     0.654450000000     0.654450000000     0          
O1       O      0.913160000000     0.631840000000     0.631840000000     0          
Zr2      Zr     0.904820000000     0.640520000000     0.595180000000     0          
O2       O      0.882480000000     0.662730000000     0.617520000000     0          
O3       O      0.853550000000     0.646450000000     0.646450000000     0          
O4       O      0.896820000000     0.603180000000     0.603180000000     0          
C1       C      0.853930000000     0.646070000000     0.697910000000     0          
C2       C      0.846430000000     0.653570000000     0.722540000000     0          
C5       C      0.829400000000     0.670600000000     0.767650000000     0          
C6       C      0.819320000000     0.680680000000     0.790350000000     0          
C7       C      0.897690000000     0.602310000000     0.553240000000     0          
C8       C      0.905190000000     0.594810000000     0.528610000000     0          
C11      C      0.922220000000     0.577780000000     0.483500000000     0          
C12      C      0.932300000000     0.567700000000     0.460800000000     0          
N1       N      0.800470000000     0.670810000000     0.800470000000     0          
N2       N      0.922430000000     0.549320000000     0.450680000000     0          
O5       O      0.678930000000     0.920710000000     0.648890000000     0          
O6       O      0.665370000000     0.934470000000     0.595180000000     0          
O7       O      0.657820000000     0.871250000000     0.687780000000     0          
C3       C      0.673120000000     0.857810000000     0.734130000000     0          
C4       C      0.681520000000     0.849400000000     0.756410000000     0          
H1       H      0.682330000000     0.872900000000     0.725750000000     0          
H2       H      0.696920000000     0.858310000000     0.764560000000     0          
O8       O      0.619630000000     0.909440000000     0.563370000000     0          
C9       C      0.606190000000     0.924740000000     0.517020000000     0          
C10      C      0.597780000000     0.933140000000     0.494740000000     0          
H3       H      0.621280000000     0.933950000000     0.525400000000     0          
H4       H      0.606690000000     0.948540000000     0.486590000000     0          
Zr1      Zr     0.654450000000     0.891000000000     0.654450000000     0          
O1       O      0.631840000000     0.913160000000     0.631840000000     0          
Zr2      Zr     0.640520000000     0.904820000000     0.595180000000     0          
O2       O      0.662730000000     0.882480000000     0.617520000000     0          
O3       O      0.646450000000     0.853550000000     0.646450000000     0          
O4       O      0.603180000000     0.896820000000     0.603180000000     0          
C1       C      0.646070000000     0.853930000000     0.697910000000     0          
C2       C      0.653570000000     0.846430000000     0.722540000000     0          
C5       C      0.670600000000     0.829400000000     0.767650000000     0          
C6       C      0.680680000000     0.819320000000     0.790350000000     0          
C7       C      0.602310000000     0.897690000000     0.553240000000     0          
C8       C      0.594810000000     0.905190000000     0.528610000000     0          
C11      C      0.577780000000     0.922220000000     0.483500000000     0          
C12      C      0.567700000000     0.932300000000     0.460800000000     0          
N1       N      0.670810000000     0.800470000000     0.800470000000     0          
N2       N      0.549320000000     0.922430000000     0.450680000000     0          
O5       O      0.920710000000     0.321070000000     0.351110000000     0          
O6       O      0.934470000000     0.334630000000     0.404820000000     0          
O7       O      0.871250000000     0.342180000000     0.312220000000     0          
C3       C      0.857810000000     0.326880000000     0.265870000000     0          
C4       C      0.849400000000     0.318480000000     0.243590000000     0          
H1       H      0.872900000000     0.317670000000     0.274250000000     0          
H2       H      0.858310000000     0.303080000000     0.235440000000     0          
O8       O      0.909440000000     0.380370000000     0.436630000000     0          
C9       C      0.924740000000     0.393810000000     0.482980000000     0          
C10      C      0.933140000000     0.402220000000     0.505260000000     0          
H3       H      0.933950000000     0.378720000000     0.474600000000     0          
H4       H      0.948540000000     0.393310000000     0.513410000000     0          
Zr1      Zr     0.891000000000     0.345550000000     0.345550000000     0          
O1       O      0.913160000000     0.368160000000     0.368160000000     0          
Zr2      Zr     0.904820000000     0.359480000000     0.404820000000     0          
O2       O      0.882480000000     0.337270000000     0.382480000000     0          
O3       O      0.853550000000     0.353550000000     0.353550000000     0          
O4       O      0.896820000000     0.396820000000     0.396820000000     0          
C1       C      0.853930000000     0.353930000000     0.302090000000     0          
C2       C      0.846430000000     0.346430000000     0.277460000000     0          
C5       C      0.829400000000     0.329400000000     0.232350000000     0          
C6       C      0.819320000000     0.319320000000     0.209650000000     0          
C7       C      0.897690000000     0.397690000000     0.446760000000     0          
C8       C      0.905190000000     0.405190000000     0.471390000000     0          
C11      C      0.922220000000     0.422220000000     0.516500000000     0          
C12      C      0.932300000000     0.432300000000     0.539200000000     0          
N1       N      0.800470000000     0.329190000000     0.199530000000     0          
N2       N      0.922430000000     0.450680000000     0.549320000000     0          
O5       O      0.321070000000     0.079290000000     0.648890000000     0          
O6       O      0.334630000000     0.065530000000     0.595180000000     0          
O7       O      0.342180000000     0.128750000000     0.687780000000     0          
C3       C      0.326880000000     0.142190000000     0.734130000000     0          
C4       C      0.318480000000     0.150600000000     0.756410000000     0          
H1       H      0.317670000000     0.127100000000     0.725750000000     0          
H2       H      0.303080000000     0.141690000000     0.764560000000     0          
O8       O      0.380370000000     0.090560000000     0.563370000000     0          
C9       C      0.393810000000     0.075260000000     0.517020000000     0          
C10      C      0.402220000000     0.066860000000     0.494740000000     0          
H3       H      0.378720000000     0.066050000000     0.525400000000     0          
H4       H      0.393310000000     0.051460000000     0.486590000000     0          
Zr1      Zr     0.345550000000     0.109000000000     0.654450000000     0          
O1       O      0.368160000000     0.086840000000     0.631840000000     0          
Zr2      Zr     0.359480000000     0.095180000000     0.595180000000     0          
O2       O      0.337270000000     0.117520000000     0.617520000000     0          
O3       O      0.353550000000     0.146450000000     0.646450000000     0          
O4       O      0.396820000000     0.103180000000     0.603180000000     0          
C1       C      0.353930000000     0.146070000000     0.697910000000     0          
C2       C      0.346430000000     0.153570000000     0.722540000000     0          
C5       C      0.329400000000     0.170600000000     0.767650000000     0          
C6       C      0.319320000000     0.180680000000     0.790350000000     0          
C7       C      0.397690000000     0.102310000000     0.553240000000     0          
C8       C      0.405190000000     0.094810000000     0.528610000000     0          
C11      C      0.422220000000     0.077780000000     0.483500000000     0          
C12      C      0.432300000000     0.067700000000     0.460800000000     0          
N1       N      0.329190000000     0.199530000000     0.800470000000     0          
N2       N      0.450680000000     0.077570000000     0.450680000000     0          
O5       O      0.079290000000     0.678930000000     0.351110000000     0          
O6       O      0.065530000000     0.665370000000     0.404820000000     0          
O7       O      0.128750000000     0.657820000000     0.312220000000     0          
C3       C      0.142190000000     0.673120000000     0.265870000000     0          
C4       C      0.150600000000     0.681520000000     0.243590000000     0          
H1       H      0.127100000000     0.682330000000     0.274250000000     0          
H2       H      0.141690000000     0.696920000000     0.235440000000     0          
O8       O      0.090560000000     0.619630000000     0.436630000000     0          
C9       C      0.075260000000     0.606190000000     0.482980000000     0          
C10      C      0.066860000000     0.597780000000     0.505260000000     0          
H3       H      0.066050000000     0.621280000000     0.474600000000     0          
H4       H      0.051460000000     0.606690000000     0.513410000000     0          
Zr1      Zr     0.109000000000     0.654450000000     0.345550000000     0          
O1       O      0.086840000000     0.631840000000     0.368160000000     0          
Zr2      Zr     0.095180000000     0.640520000000     0.404820000000     0          
O2       O      0.117520000000     0.662730000000     0.382480000000     0          
O3       O      0.146450000000     0.646450000000     0.353550000000     0          
O4       O      0.103180000000     0.603180000000     0.396820000000     0          
C1       C      0.146070000000     0.646070000000     0.302090000000     0          
C2       C      0.153570000000     0.653570000000     0.277460000000     0          
C5       C      0.170600000000     0.670600000000     0.232350000000     0          
C6       C      0.180680000000     0.680680000000     0.209650000000     0          
C7       C      0.102310000000     0.602310000000     0.446760000000     0          
C8       C      0.094810000000     0.594810000000     0.471390000000     0          
C11      C      0.077780000000     0.577780000000     0.516500000000     0          
C12      C      0.067700000000     0.567700000000     0.539200000000     0          
N1       N      0.199530000000     0.670810000000     0.199530000000     0          
N2       N      0.077570000000     0.549320000000     0.549320000000     0          
O5       O      0.351110000000     0.678930000000     0.079290000000     0          
O6       O      0.404820000000     0.665370000000     0.065530000000     0          
O7       O      0.312220000000     0.657820000000     0.128750000000     0          
C3       C      0.265870000000     0.673120000000     0.142190000000     0          
C4       C      0.243590000000     0.681520000000     0.150600000000     0          
H1       H      0.274250000000     0.682330000000     0.127100000000     0          
H2       H      0.235440000000     0.696920000000     0.141690000000     0          
O8       O      0.436630000000     0.619630000000     0.090560000000     0          
C9       C      0.482980000000     0.606190000000     0.075260000000     0          
C10      C      0.505260000000     0.597780000000     0.066860000000     0          
H3       H      0.474600000000     0.621280000000     0.066050000000     0          
H4       H      0.513410000000     0.606690000000     0.051460000000     0          
Zr1      Zr     0.345550000000     0.654450000000     0.109000000000     0          
O1       O      0.368160000000     0.631840000000     0.086840000000     0          
Zr2      Zr     0.404820000000     0.640520000000     0.095180000000     0          
O2       O      0.382480000000     0.662730000000     0.117520000000     0          
O3       O      0.353550000000     0.646450000000     0.146450000000     0          
O4       O      0.396820000000     0.603180000000     0.103180000000     0          
C1       C      0.302090000000     0.646070000000     0.146070000000     0          
C2       C      0.277460000000     0.653570000000     0.153570000000     0          
C5       C      0.232350000000     0.670600000000     0.170600000000     0          
C6       C      0.209650000000     0.680680000000     0.180680000000     0          
C7       C      0.446760000000     0.602310000000     0.102310000000     0          
C8       C      0.471390000000     0.594810000000     0.094810000000     0          
C11      C      0.516500000000     0.577780000000     0.077780000000     0          
C12      C      0.539200000000     0.567700000000     0.067700000000     0          
N2       N      0.549320000000     0.549320000000     0.077570000000     0          
O5       O      0.678930000000     0.648890000000     0.920710000000     0          
O6       O      0.665370000000     0.595180000000     0.934470000000     0          
O7       O      0.657820000000     0.687780000000     0.871250000000     0          
C3       C      0.673120000000     0.734130000000     0.857810000000     0          
C4       C      0.681520000000     0.756410000000     0.849400000000     0          
H1       H      0.682330000000     0.725750000000     0.872900000000     0          
H2       H      0.696920000000     0.764560000000     0.858310000000     0          
O8       O      0.619630000000     0.563370000000     0.909440000000     0          
C9       C      0.606190000000     0.517020000000     0.924740000000     0          
C10      C      0.597780000000     0.494740000000     0.933140000000     0          
H3       H      0.621280000000     0.525400000000     0.933950000000     0          
H4       H      0.606690000000     0.486590000000     0.948540000000     0          
Zr1      Zr     0.654450000000     0.654450000000     0.891000000000     0          
O1       O      0.631840000000     0.631840000000     0.913160000000     0          
Zr2      Zr     0.640520000000     0.595180000000     0.904820000000     0          
O2       O      0.662730000000     0.617520000000     0.882480000000     0          
O3       O      0.646450000000     0.646450000000     0.853550000000     0          
O4       O      0.603180000000     0.603180000000     0.896820000000     0          
C1       C      0.646070000000     0.697910000000     0.853930000000     0          
C2       C      0.653570000000     0.722540000000     0.846430000000     0          
C5       C      0.670600000000     0.767650000000     0.829400000000     0          
C6       C      0.680680000000     0.790350000000     0.819320000000     0          
C7       C      0.602310000000     0.553240000000     0.897690000000     0          
C8       C      0.594810000000     0.528610000000     0.905190000000     0          
C11      C      0.577780000000     0.483500000000     0.922220000000     0          
C12      C      0.567700000000     0.460800000000     0.932300000000     0          
N2       N      0.549320000000     0.450680000000     0.922430000000     0          
O5       O      0.648890000000     0.321070000000     0.079290000000     0          
O6       O      0.595180000000     0.334630000000     0.065530000000     0          
O7       O      0.687780000000     0.342180000000     0.128750000000     0          
C3       C      0.734130000000     0.326880000000     0.142190000000     0          
C4       C      0.756410000000     0.318480000000     0.150600000000     0          
H1       H      0.725750000000     0.317670000000     0.127100000000     0          
H2       H      0.764560000000     0.303080000000     0.141690000000     0          
O8       O      0.563370000000     0.380370000000     0.090560000000     0          
C9       C      0.517020000000     0.393810000000     0.075260000000     0          
C10      C      0.494740000000     0.402220000000     0.066860000000     0          
H3       H      0.525400000000     0.378720000000     0.066050000000     0          
H4       H      0.486590000000     0.393310000000     0.051460000000     0          
Zr1      Zr     0.654450000000     0.345550000000     0.109000000000     0          
O1       O      0.631840000000     0.368160000000     0.086840000000     0          
Zr2      Zr     0.595180000000     0.359480000000     0.095180000000     0          
O2       O      0.617520000000     0.337270000000     0.117520000000     0          
O3       O      0.646450000000     0.353550000000     0.146450000000     0          
O4       O      0.603180000000     0.396820000000     0.103180000000     0          
C1       C      0.697910000000     0.353930000000     0.146070000000     0          
C2       C      0.722540000000     0.346430000000     0.153570000000     0          
C5       C      0.767650000000     0.329400000000     0.170600000000     0          
C6       C      0.790350000000     0.319320000000     0.180680000000     0          
C7       C      0.553240000000     0.397690000000     0.102310000000     0          
C8       C      0.528610000000     0.405190000000     0.094810000000     0          
C11      C      0.483500000000     0.422220000000     0.077780000000     0          
C12      C      0.460800000000     0.432300000000     0.067700000000     0          
N2       N      0.450680000000     0.450680000000     0.077570000000     0          
O5       O      0.321070000000     0.351110000000     0.920710000000     0          
O6       O      0.334630000000     0.404820000000     0.934470000000     0          
O7       O      0.342180000000     0.312220000000     0.871250000000     0          
C3       C      0.326880000000     0.265870000000     0.857810000000     0          
C4       C      0.318480000000     0.243590000000     0.849400000000     0          
H1       H      0.317670000000     0.274250000000     0.872900000000     0          
H2       H      0.303080000000     0.235440000000     0.858310000000     0          
O8       O      0.380370000000     0.436630000000     0.909440000000     0          
C9       C      0.393810000000     0.482980000000     0.924740000000     0          
C10      C      0.402220000000     0.505260000000     0.933140000000     0          
H3       H      0.378720000000     0.474600000000     0.933950000000     0          
H4       H      0.393310000000     0.513410000000     0.948540000000     0          
Zr1      Zr     0.345550000000     0.345550000000     0.891000000000     0          
O1       O      0.368160000000     0.368160000000     0.913160000000     0          
Zr2      Zr     0.359480000000     0.404820000000     0.904820000000     0          
O2       O      0.337270000000     0.382480000000     0.882480000000     0          
O3       O      0.353550000000     0.353550000000     0.853550000000     0          
O4       O      0.396820000000     0.396820000000     0.896820000000     0          
C1       C      0.353930000000     0.302090000000     0.853930000000     0          
C2       C      0.346430000000     0.277460000000     0.846430000000     0          
C5       C      0.329400000000     0.232350000000     0.829400000000     0          
C6       C      0.319320000000     0.209650000000     0.819320000000     0          
C7       C      0.397690000000     0.446760000000     0.897690000000     0          
C8       C      0.405190000000     0.471390000000     0.905190000000     0          
C11      C      0.422220000000     0.516500000000     0.922220000000     0          
C12      C      0.432300000000     0.539200000000     0.932300000000     0          
N2       N      0.450680000000     0.549320000000     0.922430000000     0          
O5       O      0.351110000000     0.321070000000     0.920710000000     0          
O6       O      0.404820000000     0.334630000000     0.934470000000     0          
O7       O      0.312220000000     0.342180000000     0.871250000000     0          
C3       C      0.265870000000     0.326880000000     0.857810000000     0          
C4       C      0.243590000000     0.318480000000     0.849400000000     0          
H1       H      0.274250000000     0.317670000000     0.872900000000     0          
H2       H      0.235440000000     0.303080000000     0.858310000000     0          
O8       O      0.436630000000     0.380370000000     0.909440000000     0          
C9       C      0.482980000000     0.393810000000     0.924740000000     0          
C10      C      0.505260000000     0.402220000000     0.933140000000     0          
H3       H      0.474600000000     0.378720000000     0.933950000000     0          
H4       H      0.513410000000     0.393310000000     0.948540000000     0          
Zr2      Zr     0.404820000000     0.359480000000     0.904820000000     0          
O2       O      0.382480000000     0.337270000000     0.882480000000     0          
C1       C      0.302090000000     0.353930000000     0.853930000000     0          
C2       C      0.277460000000     0.346430000000     0.846430000000     0          
C5       C      0.232350000000     0.329400000000     0.829400000000     0          
C6       C      0.209650000000     0.319320000000     0.819320000000     0          
C7       C      0.446760000000     0.397690000000     0.897690000000     0          
C8       C      0.471390000000     0.405190000000     0.905190000000     0          
C11      C      0.516500000000     0.422220000000     0.922220000000     0          
C12      C      0.539200000000     0.432300000000     0.932300000000     0          
O5       O      0.321070000000     0.648890000000     0.079290000000     0          
O6       O      0.334630000000     0.595180000000     0.065530000000     0          
O7       O      0.342180000000     0.687780000000     0.128750000000     0          
C3       C      0.326880000000     0.734130000000     0.142190000000     0          
C4       C      0.318480000000     0.756410000000     0.150600000000     0          
H1       H      0.317670000000     0.725750000000     0.127100000000     0          
H2       H      0.303080000000     0.764560000000     0.141690000000     0          
O8       O      0.380370000000     0.563370000000     0.090560000000     0          
C9       C      0.393810000000     0.517020000000     0.075260000000     0          
C10      C      0.402220000000     0.494740000000     0.066860000000     0          
H3       H      0.378720000000     0.525400000000     0.066050000000     0          
H4       H      0.393310000000     0.486590000000     0.051460000000     0          
Zr2      Zr     0.359480000000     0.595180000000     0.095180000000     0          
O2       O      0.337270000000     0.617520000000     0.117520000000     0          
C1       C      0.353930000000     0.697910000000     0.146070000000     0          
C2       C      0.346430000000     0.722540000000     0.153570000000     0          
C5       C      0.329400000000     0.767650000000     0.170600000000     0          
C6       C      0.319320000000     0.790350000000     0.180680000000     0          
C7       C      0.397690000000     0.553240000000     0.102310000000     0          
C8       C      0.405190000000     0.528610000000     0.094810000000     0          
C11      C      0.422220000000     0.483500000000     0.077780000000     0          
C12      C      0.432300000000     0.460800000000     0.067700000000     0          
O5       O      0.648890000000     0.678930000000     0.920710000000     0          
O6       O      0.595180000000     0.665370000000     0.934470000000     0          
O7       O      0.687780000000     0.657820000000     0.871250000000     0          
C3       C      0.734130000000     0.673120000000     0.857810000000     0          
C4       C      0.756410000000     0.681520000000     0.849400000000     0          
H1       H      0.725750000000     0.682330000000     0.872900000000     0          
H2       H      0.764560000000     0.696920000000     0.858310000000     0          
O8       O      0.563370000000     0.619630000000     0.909440000000     0          
C9       C      0.517020000000     0.606190000000     0.924740000000     0          
C10      C      0.494740000000     0.597780000000     0.933140000000     0          
H3       H      0.525400000000     0.621280000000     0.933950000000     0          
H4       H      0.486590000000     0.606690000000     0.948540000000     0          
Zr2      Zr     0.595180000000     0.640520000000     0.904820000000     0          
O2       O      0.617520000000     0.662730000000     0.882480000000     0          
C1       C      0.697910000000     0.646070000000     0.853930000000     0          
C2       C      0.722540000000     0.653570000000     0.846430000000     0          
C5       C      0.767650000000     0.670600000000     0.829400000000     0          
C6       C      0.790350000000     0.680680000000     0.819320000000     0          
C7       C      0.553240000000     0.602310000000     0.897690000000     0          
C8       C      0.528610000000     0.594810000000     0.905190000000     0          
C11      C      0.483500000000     0.577780000000     0.922220000000     0          
C12      C      0.460800000000     0.567700000000     0.932300000000     0          
O5       O      0.678930000000     0.351110000000     0.079290000000     0          
O6       O      0.665370000000     0.404820000000     0.065530000000     0          
O7       O      0.657820000000     0.312220000000     0.128750000000     0          
C3       C      0.673120000000     0.265870000000     0.142190000000     0          
C4       C      0.681520000000     0.243590000000     0.150600000000     0          
H1       H      0.682330000000     0.274250000000     0.127100000000     0          
H2       H      0.696920000000     0.235440000000     0.141690000000     0          
O8       O      0.619630000000     0.436630000000     0.090560000000     0          
C9       C      0.606190000000     0.482980000000     0.075260000000     0          
C10      C      0.597780000000     0.505260000000     0.066860000000     0          
H3       H      0.621280000000     0.474600000000     0.066050000000     0          
H4       H      0.606690000000     0.513410000000     0.051460000000     0          
Zr2      Zr     0.640520000000     0.404820000000     0.095180000000     0          
O2       O      0.662730000000     0.382480000000     0.117520000000     0          
C1       C      0.646070000000     0.302090000000     0.146070000000     0          
C2       C      0.653570000000     0.277460000000     0.153570000000     0          
C5       C      0.670600000000     0.232350000000     0.170600000000     0          
C6       C      0.680680000000     0.209650000000     0.180680000000     0          
C7       C      0.602310000000     0.446760000000     0.102310000000     0          
C8       C      0.594810000000     0.471390000000     0.094810000000     0          
C11      C      0.577780000000     0.516500000000     0.077780000000     0          
C12      C      0.567700000000     0.539200000000     0.067700000000     0          
O5       O      0.079290000000     0.351110000000     0.678930000000     0          
O6       O      0.065530000000     0.404820000000     0.665370000000     0          
O7       O      0.128750000000     0.312220000000     0.657820000000     0          
C3       C      0.142190000000     0.265870000000     0.673120000000     0          
C4       C      0.150600000000     0.243590000000     0.681520000000     0          
H1       H      0.127100000000     0.274250000000     0.682330000000     0          
H2       H      0.141690000000     0.235440000000     0.696920000000     0          
O8       O      0.090560000000     0.436630000000     0.619630000000     0          
C9       C      0.075260000000     0.482980000000     0.606190000000     0          
C10      C      0.066860000000     0.505260000000     0.597780000000     0          
H3       H      0.066050000000     0.474600000000     0.621280000000     0          
H4       H      0.051460000000     0.513410000000     0.606690000000     0          
Zr2      Zr     0.095180000000     0.404820000000     0.640520000000     0          
O2       O      0.117520000000     0.382480000000     0.662730000000     0          
C1       C      0.146070000000     0.302090000000     0.646070000000     0          
C2       C      0.153570000000     0.277460000000     0.653570000000     0          
C5       C      0.170600000000     0.232350000000     0.670600000000     0          
C6       C      0.180680000000     0.209650000000     0.680680000000     0          
C7       C      0.102310000000     0.446760000000     0.602310000000     0          
C8       C      0.094810000000     0.471390000000     0.594810000000     0          
C11      C      0.077780000000     0.516500000000     0.577780000000     0          
C12      C      0.067700000000     0.539200000000     0.567700000000     0          
N1       N      0.199530000000     0.199530000000     0.670810000000     0          
O5       O      0.079290000000     0.648890000000     0.321070000000     0          
O6       O      0.065530000000     0.595180000000     0.334630000000     0          
O7       O      0.128750000000     0.687780000000     0.342180000000     0          
C3       C      0.142190000000     0.734130000000     0.326880000000     0          
C4       C      0.150600000000     0.756410000000     0.318480000000     0          
H1       H      0.127100000000     0.725750000000     0.317670000000     0          
H2       H      0.141690000000     0.764560000000     0.303080000000     0          
O8       O      0.090560000000     0.563370000000     0.380370000000     0          
C9       C      0.075260000000     0.517020000000     0.393810000000     0          
C10      C      0.066860000000     0.494740000000     0.402220000000     0          
H3       H      0.066050000000     0.525400000000     0.378720000000     0          
H4       H      0.051460000000     0.486590000000     0.393310000000     0          
Zr2      Zr     0.095180000000     0.595180000000     0.359480000000     0          
O2       O      0.117520000000     0.617520000000     0.337270000000     0          
C1       C      0.146070000000     0.697910000000     0.353930000000     0          
C2       C      0.153570000000     0.722540000000     0.346430000000     0          
C5       C      0.170600000000     0.767650000000     0.329400000000     0          
C6       C      0.180680000000     0.790350000000     0.319320000000     0          
C7       C      0.102310000000     0.553240000000     0.397690000000     0          
C8       C      0.094810000000     0.528610000000     0.405190000000     0          
C11      C      0.077780000000     0.483500000000     0.422220000000     0          
C12      C      0.067700000000     0.460800000000     0.432300000000     0          
N1       N      0.199530000000     0.800470000000     0.329190000000     0          
O5       O      0.648890000000     0.920710000000     0.678930000000     0          
O6       O      0.595180000000     0.934470000000     0.665370000000     0          
O7       O      0.687780000000     0.871250000000     0.657820000000     0          
C3       C      0.734130000000     0.857810000000     0.673120000000     0          
C4       C      0.756410000000     0.849400000000     0.681520000000     0          
H1       H      0.725750000000     0.872900000000     0.682330000000     0          
H2       H      0.764560000000     0.858310000000     0.696920000000     0          
O8       O      0.563370000000     0.909440000000     0.619630000000     0          
C9       C      0.517020000000     0.924740000000     0.606190000000     0          
C10      C      0.494740000000     0.933140000000     0.597780000000     0          
H3       H      0.525400000000     0.933950000000     0.621280000000     0          
H4       H      0.486590000000     0.948540000000     0.606690000000     0          
Zr2      Zr     0.595180000000     0.904820000000     0.640520000000     0          
O2       O      0.617520000000     0.882480000000     0.662730000000     0          
C1       C      0.697910000000     0.853930000000     0.646070000000     0          
C2       C      0.722540000000     0.846430000000     0.653570000000     0          
C5       C      0.767650000000     0.829400000000     0.670600000000     0          
C6       C      0.790350000000     0.819320000000     0.680680000000     0          
C7       C      0.553240000000     0.897690000000     0.602310000000     0          
C8       C      0.528610000000     0.905190000000     0.594810000000     0          
C11      C      0.483500000000     0.922220000000     0.577780000000     0          
C12      C      0.460800000000     0.932300000000     0.567700000000     0          
N1       N      0.800470000000     0.800470000000     0.670810000000     0          
O5       O      0.920710000000     0.351110000000     0.321070000000     0          
O6       O      0.934470000000     0.404820000000     0.334630000000     0          
O7       O      0.871250000000     0.312220000000     0.342180000000     0          
C3       C      0.857810000000     0.265870000000     0.326880000000     0          
C4       C      0.849400000000     0.243590000000     0.318480000000     0          
H1       H      0.872900000000     0.274250000000     0.317670000000     0          
H2       H      0.858310000000     0.235440000000     0.303080000000     0          
O8       O      0.909440000000     0.436630000000     0.380370000000     0          
C9       C      0.924740000000     0.482980000000     0.393810000000     0          
C10      C      0.933140000000     0.505260000000     0.402220000000     0          
H3       H      0.933950000000     0.474600000000     0.378720000000     0          
H4       H      0.948540000000     0.513410000000     0.393310000000     0          
Zr2      Zr     0.904820000000     0.404820000000     0.359480000000     0          
O2       O      0.882480000000     0.382480000000     0.337270000000     0          
C1       C      0.853930000000     0.302090000000     0.353930000000     0          
C2       C      0.846430000000     0.277460000000     0.346430000000     0          
C5       C      0.829400000000     0.232350000000     0.329400000000     0          
C6       C      0.819320000000     0.209650000000     0.319320000000     0          
C7       C      0.897690000000     0.446760000000     0.397690000000     0          
C8       C      0.905190000000     0.471390000000     0.405190000000     0          
C11      C      0.922220000000     0.516500000000     0.422220000000     0          
C12      C      0.932300000000     0.539200000000     0.432300000000     0          
N1       N      0.800470000000     0.199530000000     0.329190000000     0          
O5       O      0.351110000000     0.079290000000     0.678930000000     0          
O6       O      0.404820000000     0.065530000000     0.665370000000     0          
O7       O      0.312220000000     0.128750000000     0.657820000000     0          
C3       C      0.265870000000     0.142190000000     0.673120000000     0          
C4       C      0.243590000000     0.150600000000     0.681520000000     0          
H1       H      0.274250000000     0.127100000000     0.682330000000     0          
H2       H      0.235440000000     0.141690000000     0.696920000000     0          
O8       O      0.436630000000     0.090560000000     0.619630000000     0          
C9       C      0.482980000000     0.075260000000     0.606190000000     0          
C10      C      0.505260000000     0.066860000000     0.597780000000     0          
H3       H      0.474600000000     0.066050000000     0.621280000000     0          
H4       H      0.513410000000     0.051460000000     0.606690000000     0          
Zr2      Zr     0.404820000000     0.095180000000     0.640520000000     0          
O2       O      0.382480000000     0.117520000000     0.662730000000     0          
C1       C      0.302090000000     0.146070000000     0.646070000000     0          
C2       C      0.277460000000     0.153570000000     0.653570000000     0          
C5       C      0.232350000000     0.170600000000     0.670600000000     0          
C6       C      0.209650000000     0.180680000000     0.680680000000     0          
C7       C      0.446760000000     0.102310000000     0.602310000000     0          
C8       C      0.471390000000     0.094810000000     0.594810000000     0          
C11      C      0.516500000000     0.077780000000     0.577780000000     0          
C12      C      0.539200000000     0.067700000000     0.567700000000     0          
O5       O      0.920710000000     0.648890000000     0.678930000000     0          
O6       O      0.934470000000     0.595180000000     0.665370000000     0          
O7       O      0.871250000000     0.687780000000     0.657820000000     0          
C3       C      0.857810000000     0.734130000000     0.673120000000     0          
C4       C      0.849400000000     0.756410000000     0.681520000000     0          
H1       H      0.872900000000     0.725750000000     0.682330000000     0          
H2       H      0.858310000000     0.764560000000     0.696920000000     0          
O8       O      0.909440000000     0.563370000000     0.619630000000     0          
C9       C      0.924740000000     0.517020000000     0.606190000000     0          
C10      C      0.933140000000     0.494740000000     0.597780000000     0          
H3       H      0.933950000000     0.525400000000     0.621280000000     0          
H4       H      0.948540000000     0.486590000000     0.606690000000     0          
Zr2      Zr     0.904820000000     0.595180000000     0.640520000000     0          
O2       O      0.882480000000     0.617520000000     0.662730000000     0          
C1       C      0.853930000000     0.697910000000     0.646070000000     0          
C2       C      0.846430000000     0.722540000000     0.653570000000     0          
C5       C      0.829400000000     0.767650000000     0.670600000000     0          
C6       C      0.819320000000     0.790350000000     0.680680000000     0          
C7       C      0.897690000000     0.553240000000     0.602310000000     0          
C8       C      0.905190000000     0.528610000000     0.594810000000     0          
C11      C      0.922220000000     0.483500000000     0.577780000000     0          
C12      C      0.932300000000     0.460800000000     0.567700000000     0          
O5       O      0.648890000000     0.079290000000     0.321070000000     0          
O6       O      0.595180000000     0.065530000000     0.334630000000     0          
O7       O      0.687780000000     0.128750000000     0.342180000000     0          
C3       C      0.734130000000     0.142190000000     0.326880000000     0          
C4       C      0.756410000000     0.150600000000     0.318480000000     0          
H1       H      0.725750000000     0.127100000000     0.317670000000     0          
H2       H      0.764560000000     0.141690000000     0.303080000000     0          
O8       O      0.563370000000     0.090560000000     0.380370000000     0          
C9       C      0.517020000000     0.075260000000     0.393810000000     0          
C10      C      0.494740000000     0.066860000000     0.402220000000     0          
H3       H      0.525400000000     0.066050000000     0.378720000000     0          
H4       H      0.486590000000     0.051460000000     0.393310000000     0          
Zr2      Zr     0.595180000000     0.095180000000     0.359480000000     0          
O2       O      0.617520000000     0.117520000000     0.337270000000     0          
C1       C      0.697910000000     0.146070000000     0.353930000000     0          
C2       C      0.722540000000     0.153570000000     0.346430000000     0          
C5       C      0.767650000000     0.170600000000     0.329400000000     0          
C6       C      0.790350000000     0.180680000000     0.319320000000     0          
C7       C      0.553240000000     0.102310000000     0.397690000000     0          
C8       C      0.528610000000     0.094810000000     0.405190000000     0          
C11      C      0.483500000000     0.077780000000     0.422220000000     0          
C12      C      0.460800000000     0.067700000000     0.432300000000     0          
O5       O      0.351110000000     0.920710000000     0.321070000000     0          
O6       O      0.404820000000     0.934470000000     0.334630000000     0          
O7       O      0.312220000000     0.871250000000     0.342180000000     0          
C3       C      0.265870000000     0.857810000000     0.326880000000     0          
C4       C      0.243590000000     0.849400000000     0.318480000000     0          
H1       H      0.274250000000     0.872900000000     0.317670000000     0          
H2       H      0.235440000000     0.858310000000     0.303080000000     0          
O8       O      0.436630000000     0.909440000000     0.380370000000     0          
C9       C      0.482980000000     0.924740000000     0.393810000000     0          
C10      C      0.505260000000     0.933140000000     0.402220000000     0          
H3       H      0.474600000000     0.933950000000     0.378720000000     0          
H4       H      0.513410000000     0.948540000000     0.393310000000     0          
Zr2      Zr     0.404820000000     0.904820000000     0.359480000000     0          
O2       O      0.382480000000     0.882480000000     0.337270000000     0          
C1       C      0.302090000000     0.853930000000     0.353930000000     0          
C2       C      0.277460000000     0.846430000000     0.346430000000     0          
C5       C      0.232350000000     0.829400000000     0.329400000000     0          
C6       C      0.209650000000     0.819320000000     0.319320000000     0          
C7       C      0.446760000000     0.897690000000     0.397690000000     0          
C8       C      0.471390000000     0.905190000000     0.405190000000     0          
C11      C      0.516500000000     0.922220000000     0.422220000000     0          
C12      C      0.539200000000     0.932300000000     0.432300000000     0          
O5       O      0.678930000000     0.579290000000     0.851110000000     0          
O6       O      0.665370000000     0.565530000000     0.904820000000     0          
O7       O      0.657820000000     0.628750000000     0.812220000000     0          
C3       C      0.673120000000     0.642190000000     0.765870000000     0          
C4       C      0.681520000000     0.650600000000     0.743590000000     0          
H1       H      0.682330000000     0.627100000000     0.774250000000     0          
H2       H      0.696920000000     0.641690000000     0.735440000000     0          
O8       O      0.619630000000     0.590560000000     0.936630000000     0          
C9       C      0.606190000000     0.575260000000     0.982980000000     0          
C10      C      0.597780000000     0.566860000000     0.005260000000     0          
H3       H      0.621280000000     0.566050000000     0.974600000000     0          
H4       H      0.606690000000     0.551460000000     0.013410000000     0          
Zr1      Zr     0.654450000000     0.609000000000     0.845550000000     0          
O1       O      0.631840000000     0.586840000000     0.868160000000     0          
C1       C      0.646070000000     0.646070000000     0.802090000000     0          
C2       C      0.653570000000     0.653570000000     0.777460000000     0          
C5       C      0.670600000000     0.670600000000     0.732350000000     0          
C6       C      0.680680000000     0.680680000000     0.709650000000     0          
C7       C      0.602310000000     0.602310000000     0.946760000000     0          
C8       C      0.594810000000     0.594810000000     0.971390000000     0          
C11      C      0.577780000000     0.577780000000     0.016500000000     0          
C12      C      0.567700000000     0.567700000000     0.039200000000     0          
N1       N      0.670810000000     0.699530000000     0.699530000000     0          
N2       N      0.549320000000     0.577570000000     0.049320000000     0          
O5       O      0.079290000000     0.821070000000     0.148890000000     0          
O6       O      0.065530000000     0.834630000000     0.095180000000     0          
O7       O      0.128750000000     0.842180000000     0.187780000000     0          
C3       C      0.142190000000     0.826880000000     0.234130000000     0          
C4       C      0.150600000000     0.818480000000     0.256410000000     0          
H1       H      0.127100000000     0.817670000000     0.225750000000     0          
H2       H      0.141690000000     0.803080000000     0.264560000000     0          
O8       O      0.090560000000     0.880370000000     0.063370000000     0          
C9       C      0.075260000000     0.893810000000     0.017020000000     0          
C10      C      0.066860000000     0.902220000000     0.994740000000     0          
H3       H      0.066050000000     0.878720000000     0.025400000000     0          
H4       H      0.051460000000     0.893310000000     0.986590000000     0          
Zr1      Zr     0.109000000000     0.845550000000     0.154450000000     0          
O1       O      0.086840000000     0.868160000000     0.131840000000     0          
Zr2      Zr     0.095180000000     0.859480000000     0.095180000000     0          
O2       O      0.117520000000     0.837270000000     0.117520000000     0          
O3       O      0.146450000000     0.853550000000     0.146450000000     0          
O4       O      0.103180000000     0.896820000000     0.103180000000     0          
C1       C      0.146070000000     0.853930000000     0.197910000000     0          
C2       C      0.153570000000     0.846430000000     0.222540000000     0          
C5       C      0.170600000000     0.829400000000     0.267650000000     0          
C6       C      0.180680000000     0.819320000000     0.290350000000     0          
C7       C      0.102310000000     0.897690000000     0.053240000000     0          
C8       C      0.094810000000     0.905190000000     0.028610000000     0          
C11      C      0.077780000000     0.922220000000     0.983500000000     0          
C12      C      0.067700000000     0.932300000000     0.960800000000     0          
N1       N      0.199530000000     0.829190000000     0.300470000000     0          
N2       N      0.077570000000     0.950680000000     0.950680000000     0          
O5       O      0.321070000000     0.420710000000     0.851110000000     0          
O6       O      0.334630000000     0.434470000000     0.904820000000     0          
O7       O      0.342180000000     0.371250000000     0.812220000000     0          
C3       C      0.326880000000     0.357810000000     0.765870000000     0          
C4       C      0.318480000000     0.349400000000     0.743590000000     0          
H1       H      0.317670000000     0.372900000000     0.774250000000     0          
H2       H      0.303080000000     0.358310000000     0.735440000000     0          
O8       O      0.380370000000     0.409440000000     0.936630000000     0          
C9       C      0.393810000000     0.424740000000     0.982980000000     0          
C10      C      0.402220000000     0.433140000000     0.005260000000     0          
H3       H      0.378720000000     0.433950000000     0.974600000000     0          
H4       H      0.393310000000     0.448540000000     0.013410000000     0          
Zr1      Zr     0.345550000000     0.391000000000     0.845550000000     0          
O1       O      0.368160000000     0.413160000000     0.868160000000     0          
C1       C      0.353930000000     0.353930000000     0.802090000000     0          
C2       C      0.346430000000     0.346430000000     0.777460000000     0          
C5       C      0.329400000000     0.329400000000     0.732350000000     0          
C6       C      0.319320000000     0.319320000000     0.709650000000     0          
C7       C      0.397690000000     0.397690000000     0.946760000000     0          
C8       C      0.405190000000     0.405190000000     0.971390000000     0          
C11      C      0.422220000000     0.422220000000     0.016500000000     0          
C12      C      0.432300000000     0.432300000000     0.039200000000     0          
N1       N      0.329190000000     0.300470000000     0.699530000000     0          
N2       N      0.450680000000     0.422430000000     0.049320000000     0          
O5       O      0.920710000000     0.178930000000     0.148890000000     0          
O6       O      0.934470000000     0.165370000000     0.095180000000     0          
O7       O      0.871250000000     0.157820000000     0.187780000000     0          
C3       C      0.857810000000     0.173120000000     0.234130000000     0          
C4       C      0.849400000000     0.181520000000     0.256410000000     0          
H1       H      0.872900000000     0.182330000000     0.225750000000     0          
H2       H      0.858310000000     0.196920000000     0.264560000000     0          
O8       O      0.909440000000     0.119630000000     0.063370000000     0          
C9       C      0.924740000000     0.106190000000     0.017020000000     0          
C10      C      0.933140000000     0.097780000000     0.994740000000     0          
H3       H      0.933950000000     0.121280000000     0.025400000000     0          
H4       H      0.948540000000     0.106690000000     0.986590000000     0          
Zr1      Zr     0.891000000000     0.154450000000     0.154450000000     0          
O1       O      0.913160000000     0.131840000000     0.131840000000     0          
Zr2      Zr     0.904820000000     0.140520000000     0.095180000000     0          
O2       O      0.882480000000     0.162730000000     0.117520000000     0          
O3       O      0.853550000000     0.146450000000     0.146450000000     0          
O4       O      0.896820000000     0.103180000000     0.103180000000     0          
C1       C      0.853930000000     0.146070000000     0.197910000000     0          
C2       C      0.846430000000     0.153570000000     0.222540000000     0          
C5       C      0.829400000000     0.170600000000     0.267650000000     0          
C6       C      0.819320000000     0.180680000000     0.290350000000     0          
C7       C      0.897690000000     0.102310000000     0.053240000000     0          
C8       C      0.905190000000     0.094810000000     0.028610000000     0          
C11      C      0.922220000000     0.077780000000     0.983500000000     0          
C12      C      0.932300000000     0.067700000000     0.960800000000     0          
N1       N      0.800470000000     0.170810000000     0.300470000000     0          
N2       N      0.922430000000     0.049320000000     0.950680000000     0          
O5       O      0.678930000000     0.420710000000     0.148890000000     0          
O6       O      0.665370000000     0.434470000000     0.095180000000     0          
O7       O      0.657820000000     0.371250000000     0.187780000000     0          
C3       C      0.673120000000     0.357810000000     0.234130000000     0          
C4       C      0.681520000000     0.349400000000     0.256410000000     0          
H1       H      0.682330000000     0.372900000000     0.225750000000     0          
H2       H      0.696920000000     0.358310000000     0.264560000000     0          
O8       O      0.619630000000     0.409440000000     0.063370000000     0          
C9       C      0.606190000000     0.424740000000     0.017020000000     0          
C10      C      0.597780000000     0.433140000000     0.994740000000     0          
H3       H      0.621280000000     0.433950000000     0.025400000000     0          
H4       H      0.606690000000     0.448540000000     0.986590000000     0          
Zr1      Zr     0.654450000000     0.391000000000     0.154450000000     0          
O1       O      0.631840000000     0.413160000000     0.131840000000     0          
C1       C      0.646070000000     0.353930000000     0.197910000000     0          
C2       C      0.653570000000     0.346430000000     0.222540000000     0          
C5       C      0.670600000000     0.329400000000     0.267650000000     0          
C6       C      0.680680000000     0.319320000000     0.290350000000     0          
C7       C      0.602310000000     0.397690000000     0.053240000000     0          
C8       C      0.594810000000     0.405190000000     0.028610000000     0          
C11      C      0.577780000000     0.422220000000     0.983500000000     0          
C12      C      0.567700000000     0.432300000000     0.960800000000     0          
N1       N      0.670810000000     0.300470000000     0.300470000000     0          
N2       N      0.549320000000     0.422430000000     0.950680000000     0          
O5       O      0.920710000000     0.821070000000     0.851110000000     0          
O6       O      0.934470000000     0.834630000000     0.904820000000     0          
O7       O      0.871250000000     0.842180000000     0.812220000000     0          
C3       C      0.857810000000     0.826880000000     0.765870000000     0          
C4       C      0.849400000000     0.818480000000     0.743590000000     0          
H1       H      0.872900000000     0.817670000000     0.774250000000     0          
H2       H      0.858310000000     0.803080000000     0.735440000000     0          
O8       O      0.909440000000     0.880370000000     0.936630000000     0          
C9       C      0.924740000000     0.893810000000     0.982980000000     0          
C10      C      0.933140000000     0.902220000000     0.005260000000     0          
H3       H      0.933950000000     0.878720000000     0.974600000000     0          
H4       H      0.948540000000     0.893310000000     0.013410000000     0          
Zr1      Zr     0.891000000000     0.845550000000     0.845550000000     0          
O1       O      0.913160000000     0.868160000000     0.868160000000     0          
Zr2      Zr     0.904820000000     0.859480000000     0.904820000000     0          
O2       O      0.882480000000     0.837270000000     0.882480000000     0          
O3       O      0.853550000000     0.853550000000     0.853550000000     0          
O4       O      0.896820000000     0.896820000000     0.896820000000     0          
C1       C      0.853930000000     0.853930000000     0.802090000000     0          
C2       C      0.846430000000     0.846430000000     0.777460000000     0          
C5       C      0.829400000000     0.829400000000     0.732350000000     0          
C6       C      0.819320000000     0.819320000000     0.709650000000     0          
C7       C      0.897690000000     0.897690000000     0.946760000000     0          
C8       C      0.905190000000     0.905190000000     0.971390000000     0          
C11      C      0.922220000000     0.922220000000     0.016500000000     0          
C12      C      0.932300000000     0.932300000000     0.039200000000     0          
N1       N      0.800470000000     0.829190000000     0.699530000000     0          
N2       N      0.922430000000     0.950680000000     0.049320000000     0          
O5       O      0.321070000000     0.579290000000     0.148890000000     0          
O6       O      0.334630000000     0.565530000000     0.095180000000     0          
O7       O      0.342180000000     0.628750000000     0.187780000000     0          
C3       C      0.326880000000     0.642190000000     0.234130000000     0          
C4       C      0.318480000000     0.650600000000     0.256410000000     0          
H1       H      0.317670000000     0.627100000000     0.225750000000     0          
H2       H      0.303080000000     0.641690000000     0.264560000000     0          
O8       O      0.380370000000     0.590560000000     0.063370000000     0          
C9       C      0.393810000000     0.575260000000     0.017020000000     0          
C10      C      0.402220000000     0.566860000000     0.994740000000     0          
H3       H      0.378720000000     0.566050000000     0.025400000000     0          
H4       H      0.393310000000     0.551460000000     0.986590000000     0          
Zr1      Zr     0.345550000000     0.609000000000     0.154450000000     0          
O1       O      0.368160000000     0.586840000000     0.131840000000     0          
C1       C      0.353930000000     0.646070000000     0.197910000000     0          
C2       C      0.346430000000     0.653570000000     0.222540000000     0          
C5       C      0.329400000000     0.670600000000     0.267650000000     0          
C6       C      0.319320000000     0.680680000000     0.290350000000     0          
C7       C      0.397690000000     0.602310000000     0.053240000000     0          
C8       C      0.405190000000     0.594810000000     0.028610000000     0          
C11      C      0.422220000000     0.577780000000     0.983500000000     0          
C12      C      0.432300000000     0.567700000000     0.960800000000     0          
N1       N      0.329190000000     0.699530000000     0.300470000000     0          
N2       N      0.450680000000     0.577570000000     0.950680000000     0          
O5       O      0.079290000000     0.178930000000     0.851110000000     0          
O6       O      0.065530000000     0.165370000000     0.904820000000     0          
O7       O      0.128750000000     0.157820000000     0.812220000000     0          
C3       C      0.142190000000     0.173120000000     0.765870000000     0          
C4       C      0.150600000000     0.181520000000     0.743590000000     0          
H1       H      0.127100000000     0.182330000000     0.774250000000     0          
H2       H      0.141690000000     0.196920000000     0.735440000000     0          
O8       O      0.090560000000     0.119630000000     0.936630000000     0          
C9       C      0.075260000000     0.106190000000     0.982980000000     0          
C10      C      0.066860000000     0.097780000000     0.005260000000     0          
H3       H      0.066050000000     0.121280000000     0.974600000000     0          
H4       H      0.051460000000     0.106690000000     0.013410000000     0          
Zr1      Zr     0.109000000000     0.154450000000     0.845550000000     0          
O1       O      0.086840000000     0.131840000000     0.868160000000     0          
Zr2      Zr     0.095180000000     0.140520000000     0.904820000000     0          
O2       O      0.117520000000     0.162730000000     0.882480000000     0          
O3       O      0.146450000000     0.146450000000     0.853550000000     0          
O4       O      0.103180000000     0.103180000000     0.896820000000     0          
C1       C      0.146070000000     0.146070000000     0.802090000000     0          
C2       C      0.153570000000     0.153570000000     0.777460000000     0          
C5       C      0.170600000000     0.170600000000     0.732350000000     0          
C6       C      0.180680000000     0.180680000000     0.709650000000     0          
C7       C      0.102310000000     0.102310000000     0.946760000000     0          
C8       C      0.094810000000     0.094810000000     0.971390000000     0          
C11      C      0.077780000000     0.077780000000     0.016500000000     0          
C12      C      0.067700000000     0.067700000000     0.039200000000     0          
N1       N      0.199530000000     0.170810000000     0.699530000000     0          
N2       N      0.077570000000     0.049320000000     0.049320000000     0          
O5       O      0.351110000000     0.178930000000     0.579290000000     0          
O6       O      0.404820000000     0.165370000000     0.565530000000     0          
O7       O      0.312220000000     0.157820000000     0.628750000000     0          
C3       C      0.265870000000     0.173120000000     0.642190000000     0          
C4       C      0.243590000000     0.181520000000     0.650600000000     0          
H1       H      0.274250000000     0.182330000000     0.627100000000     0          
H2       H      0.235440000000     0.196920000000     0.641690000000     0          
O8       O      0.436630000000     0.119630000000     0.590560000000     0          
C9       C      0.482980000000     0.106190000000     0.575260000000     0          
C10      C      0.505260000000     0.097780000000     0.566860000000     0          
H3       H      0.474600000000     0.121280000000     0.566050000000     0          
H4       H      0.513410000000     0.106690000000     0.551460000000     0          
Zr1      Zr     0.345550000000     0.154450000000     0.609000000000     0          
O1       O      0.368160000000     0.131840000000     0.586840000000     0          
Zr2      Zr     0.404820000000     0.140520000000     0.595180000000     0          
O2       O      0.382480000000     0.162730000000     0.617520000000     0          
N2       N      0.549320000000     0.049320000000     0.577570000000     0          
O5       O      0.678930000000     0.148890000000     0.420710000000     0          
O6       O      0.665370000000     0.095180000000     0.434470000000     0          
O7       O      0.657820000000     0.187780000000     0.371250000000     0          
C3       C      0.673120000000     0.234130000000     0.357810000000     0          
C4       C      0.681520000000     0.256410000000     0.349400000000     0          
H1       H      0.682330000000     0.225750000000     0.372900000000     0          
H2       H      0.696920000000     0.264560000000     0.358310000000     0          
O8       O      0.619630000000     0.063370000000     0.409440000000     0          
C9       C      0.606190000000     0.017020000000     0.424740000000     0          
C10      C      0.597780000000     0.994740000000     0.433140000000     0          
H3       H      0.621280000000     0.025400000000     0.433950000000     0          
H4       H      0.606690000000     0.986590000000     0.448540000000     0          
Zr1      Zr     0.654450000000     0.154450000000     0.391000000000     0          
O1       O      0.631840000000     0.131840000000     0.413160000000     0          
C1       C      0.646070000000     0.197910000000     0.353930000000     0          
C2       C      0.653570000000     0.222540000000     0.346430000000     0          
C5       C      0.670600000000     0.267650000000     0.329400000000     0          
C6       C      0.680680000000     0.290350000000     0.319320000000     0          
C7       C      0.602310000000     0.053240000000     0.397690000000     0          
C8       C      0.594810000000     0.028610000000     0.405190000000     0          
C11      C      0.577780000000     0.983500000000     0.422220000000     0          
C12      C      0.567700000000     0.960800000000     0.432300000000     0          
N2       N      0.549320000000     0.950680000000     0.422430000000     0          
O5       O      0.648890000000     0.821070000000     0.579290000000     0          
O6       O      0.595180000000     0.834630000000     0.565530000000     0          
O7       O      0.687780000000     0.842180000000     0.628750000000     0          
C3       C      0.734130000000     0.826880000000     0.642190000000     0          
C4       C      0.756410000000     0.818480000000     0.650600000000     0          
H1       H      0.725750000000     0.817670000000     0.627100000000     0          
H2       H      0.764560000000     0.803080000000     0.641690000000     0          
O8       O      0.563370000000     0.880370000000     0.590560000000     0          
C9       C      0.517020000000     0.893810000000     0.575260000000     0          
C10      C      0.494740000000     0.902220000000     0.566860000000     0          
H3       H      0.525400000000     0.878720000000     0.566050000000     0          
H4       H      0.486590000000     0.893310000000     0.551460000000     0          
Zr1      Zr     0.654450000000     0.845550000000     0.609000000000     0          
O1       O      0.631840000000     0.868160000000     0.586840000000     0          
Zr2      Zr     0.595180000000     0.859480000000     0.595180000000     0          
O2       O      0.617520000000     0.837270000000     0.617520000000     0          
N2       N      0.450680000000     0.950680000000     0.577570000000     0          
O5       O      0.321070000000     0.851110000000     0.420710000000     0          
O6       O      0.334630000000     0.904820000000     0.434470000000     0          
O7       O      0.342180000000     0.812220000000     0.371250000000     0          
C3       C      0.326880000000     0.765870000000     0.357810000000     0          
C4       C      0.318480000000     0.743590000000     0.349400000000     0          
H1       H      0.317670000000     0.774250000000     0.372900000000     0          
H2       H      0.303080000000     0.735440000000     0.358310000000     0          
O8       O      0.380370000000     0.936630000000     0.409440000000     0          
C9       C      0.393810000000     0.982980000000     0.424740000000     0          
C10      C      0.402220000000     0.005260000000     0.433140000000     0          
H3       H      0.378720000000     0.974600000000     0.433950000000     0          
H4       H      0.393310000000     0.013410000000     0.448540000000     0          
Zr1      Zr     0.345550000000     0.845550000000     0.391000000000     0          
O1       O      0.368160000000     0.868160000000     0.413160000000     0          
C1       C      0.353930000000     0.802090000000     0.353930000000     0          
C2       C      0.346430000000     0.777460000000     0.346430000000     0          
C5       C      0.329400000000     0.732350000000     0.329400000000     0          
C6       C      0.319320000000     0.709650000000     0.319320000000     0          
C7       C      0.397690000000     0.946760000000     0.397690000000     0          
C8       C      0.405190000000     0.971390000000     0.405190000000     0          
C11      C      0.422220000000     0.016500000000     0.422220000000     0          
C12      C      0.432300000000     0.039200000000     0.432300000000     0          
N2       N      0.450680000000     0.049320000000     0.422430000000     0          
O5       O      0.351110000000     0.821070000000     0.420710000000     0          
O6       O      0.404820000000     0.834630000000     0.434470000000     0          
O7       O      0.312220000000     0.842180000000     0.371250000000     0          
C3       C      0.265870000000     0.826880000000     0.357810000000     0          
C4       C      0.243590000000     0.818480000000     0.349400000000     0          
H1       H      0.274250000000     0.817670000000     0.372900000000     0          
H2       H      0.235440000000     0.803080000000     0.358310000000     0          
O8       O      0.436630000000     0.880370000000     0.409440000000     0          
C9       C      0.482980000000     0.893810000000     0.424740000000     0          
C10      C      0.505260000000     0.902220000000     0.433140000000     0          
H3       H      0.474600000000     0.878720000000     0.433950000000     0          
H4       H      0.513410000000     0.893310000000     0.448540000000     0          
Zr2      Zr     0.404820000000     0.859480000000     0.404820000000     0          
O2       O      0.382480000000     0.837270000000     0.382480000000     0          
O5       O      0.321070000000     0.148890000000     0.579290000000     0          
O6       O      0.334630000000     0.095180000000     0.565530000000     0          
O7       O      0.342180000000     0.187780000000     0.628750000000     0          
C3       C      0.326880000000     0.234130000000     0.642190000000     0          
C4       C      0.318480000000     0.256410000000     0.650600000000     0          
H1       H      0.317670000000     0.225750000000     0.627100000000     0          
H2       H      0.303080000000     0.264560000000     0.641690000000     0          
O8       O      0.380370000000     0.063370000000     0.590560000000     0          
C9       C      0.393810000000     0.017020000000     0.575260000000     0          
C10      C      0.402220000000     0.994740000000     0.566860000000     0          
H3       H      0.378720000000     0.025400000000     0.566050000000     0          
H4       H      0.393310000000     0.986590000000     0.551460000000     0          
C1       C      0.353930000000     0.197910000000     0.646070000000     0          
C2       C      0.346430000000     0.222540000000     0.653570000000     0          
C5       C      0.329400000000     0.267650000000     0.670600000000     0          
C6       C      0.319320000000     0.290350000000     0.680680000000     0          
C7       C      0.397690000000     0.053240000000     0.602310000000     0          
C8       C      0.405190000000     0.028610000000     0.594810000000     0          
C11      C      0.422220000000     0.983500000000     0.577780000000     0          
C12      C      0.432300000000     0.960800000000     0.567700000000     0          
O5       O      0.648890000000     0.178930000000     0.420710000000     0          
O6       O      0.595180000000     0.165370000000     0.434470000000     0          
O7       O      0.687780000000     0.157820000000     0.371250000000     0          
C3       C      0.734130000000     0.173120000000     0.357810000000     0          
C4       C      0.756410000000     0.181520000000     0.349400000000     0          
H1       H      0.725750000000     0.182330000000     0.372900000000     0          
H2       H      0.764560000000     0.196920000000     0.358310000000     0          
O8       O      0.563370000000     0.119630000000     0.409440000000     0          
C9       C      0.517020000000     0.106190000000     0.424740000000     0          
C10      C      0.494740000000     0.097780000000     0.433140000000     0          
H3       H      0.525400000000     0.121280000000     0.433950000000     0          
H4       H      0.486590000000     0.106690000000     0.448540000000     0          
Zr2      Zr     0.595180000000     0.140520000000     0.404820000000     0          
O2       O      0.617520000000     0.162730000000     0.382480000000     0          
O5       O      0.678930000000     0.851110000000     0.579290000000     0          
O6       O      0.665370000000     0.904820000000     0.565530000000     0          
O7       O      0.657820000000     0.812220000000     0.628750000000     0          
C3       C      0.673120000000     0.765870000000     0.642190000000     0          
C4       C      0.681520000000     0.743590000000     0.650600000000     0          
H1       H      0.682330000000     0.774250000000     0.627100000000     0          
H2       H      0.696920000000     0.735440000000     0.641690000000     0          
O8       O      0.619630000000     0.936630000000     0.590560000000     0          
C9       C      0.606190000000     0.982980000000     0.575260000000     0          
C10      C      0.597780000000     0.005260000000     0.566860000000     0          
H3       H      0.621280000000     0.974600000000     0.566050000000     0          
H4       H      0.606690000000     0.013410000000     0.551460000000     0          
C1       C      0.646070000000     0.802090000000     0.646070000000     0          
C2       C      0.653570000000     0.777460000000     0.653570000000     0          
C5       C      0.670600000000     0.732350000000     0.670600000000     0          
C6       C      0.680680000000     0.709650000000     0.680680000000     0          
C7       C      0.602310000000     0.946760000000     0.602310000000     0          
C8       C      0.594810000000     0.971390000000     0.594810000000     0          
C11      C      0.577780000000     0.016500000000     0.577780000000     0          
C12      C      0.567700000000     0.039200000000     0.567700000000     0          
O5       O      0.079290000000     0.851110000000     0.178930000000     0          
O6       O      0.065530000000     0.904820000000     0.165370000000     0          
O7       O      0.128750000000     0.812220000000     0.157820000000     0          
C3       C      0.142190000000     0.765870000000     0.173120000000     0          
C4       C      0.150600000000     0.743590000000     0.181520000000     0          
H1       H      0.127100000000     0.774250000000     0.182330000000     0          
H2       H      0.141690000000     0.735440000000     0.196920000000     0          
O8       O      0.090560000000     0.936630000000     0.119630000000     0          
C9       C      0.075260000000     0.982980000000     0.106190000000     0          
C10      C      0.066860000000     0.005260000000     0.097780000000     0          
H3       H      0.066050000000     0.974600000000     0.121280000000     0          
H4       H      0.051460000000     0.013410000000     0.106690000000     0          
Zr2      Zr     0.095180000000     0.904820000000     0.140520000000     0          
O2       O      0.117520000000     0.882480000000     0.162730000000     0          
C1       C      0.146070000000     0.802090000000     0.146070000000     0          
C2       C      0.153570000000     0.777460000000     0.153570000000     0          
C5       C      0.170600000000     0.732350000000     0.170600000000     0          
C6       C      0.180680000000     0.709650000000     0.180680000000     0          
C7       C      0.102310000000     0.946760000000     0.102310000000     0          
C8       C      0.094810000000     0.971390000000     0.094810000000     0          
C11      C      0.077780000000     0.016500000000     0.077780000000     0          
C12      C      0.067700000000     0.039200000000     0.067700000000     0          
N1       N      0.199530000000     0.699530000000     0.170810000000     0          
O5       O      0.079290000000     0.148890000000     0.821070000000     0          
O6       O      0.065530000000     0.095180000000     0.834630000000     0          
O7       O      0.128750000000     0.187780000000     0.842180000000     0          
C3       C      0.142190000000     0.234130000000     0.826880000000     0          
C4       C      0.150600000000     0.256410000000     0.818480000000     0          
H1       H      0.127100000000     0.225750000000     0.817670000000     0          
H2       H      0.141690000000     0.264560000000     0.803080000000     0          
O8       O      0.090560000000     0.063370000000     0.880370000000     0          
C9       C      0.075260000000     0.017020000000     0.893810000000     0          
C10      C      0.066860000000     0.994740000000     0.902220000000     0          
H3       H      0.066050000000     0.025400000000     0.878720000000     0          
H4       H      0.051460000000     0.986590000000     0.893310000000     0          
Zr2      Zr     0.095180000000     0.095180000000     0.859480000000     0          
O2       O      0.117520000000     0.117520000000     0.837270000000     0          
C1       C      0.146070000000     0.197910000000     0.853930000000     0          
C2       C      0.153570000000     0.222540000000     0.846430000000     0          
C5       C      0.170600000000     0.267650000000     0.829400000000     0          
C6       C      0.180680000000     0.290350000000     0.819320000000     0          
C7       C      0.102310000000     0.053240000000     0.897690000000     0          
C8       C      0.094810000000     0.028610000000     0.905190000000     0          
C11      C      0.077780000000     0.983500000000     0.922220000000     0          
C12      C      0.067700000000     0.960800000000     0.932300000000     0          
N1       N      0.199530000000     0.300470000000     0.829190000000     0          
O5       O      0.648890000000     0.420710000000     0.178930000000     0          
O6       O      0.595180000000     0.434470000000     0.165370000000     0          
O7       O      0.687780000000     0.371250000000     0.157820000000     0          
C3       C      0.734130000000     0.357810000000     0.173120000000     0          
C4       C      0.756410000000     0.349400000000     0.181520000000     0          
H1       H      0.725750000000     0.372900000000     0.182330000000     0          
H2       H      0.764560000000     0.358310000000     0.196920000000     0          
O8       O      0.563370000000     0.409440000000     0.119630000000     0          
C9       C      0.517020000000     0.424740000000     0.106190000000     0          
C10      C      0.494740000000     0.433140000000     0.097780000000     0          
H3       H      0.525400000000     0.433950000000     0.121280000000     0          
H4       H      0.486590000000     0.448540000000     0.106690000000     0          
Zr2      Zr     0.595180000000     0.404820000000     0.140520000000     0          
O2       O      0.617520000000     0.382480000000     0.162730000000     0          
N1       N      0.800470000000     0.300470000000     0.170810000000     0          
O5       O      0.920710000000     0.851110000000     0.821070000000     0          
O6       O      0.934470000000     0.904820000000     0.834630000000     0          
O7       O      0.871250000000     0.812220000000     0.842180000000     0          
C3       C      0.857810000000     0.765870000000     0.826880000000     0          
C4       C      0.849400000000     0.743590000000     0.818480000000     0          
H1       H      0.872900000000     0.774250000000     0.817670000000     0          
H2       H      0.858310000000     0.735440000000     0.803080000000     0          
O8       O      0.909440000000     0.936630000000     0.880370000000     0          
C9       C      0.924740000000     0.982980000000     0.893810000000     0          
C10      C      0.933140000000     0.005260000000     0.902220000000     0          
H3       H      0.933950000000     0.974600000000     0.878720000000     0          
H4       H      0.948540000000     0.013410000000     0.893310000000     0          
Zr2      Zr     0.904820000000     0.904820000000     0.859480000000     0          
O2       O      0.882480000000     0.882480000000     0.837270000000     0          
C1       C      0.853930000000     0.802090000000     0.853930000000     0          
C2       C      0.846430000000     0.777460000000     0.846430000000     0          
C5       C      0.829400000000     0.732350000000     0.829400000000     0          
C6       C      0.819320000000     0.709650000000     0.819320000000     0          
C7       C      0.897690000000     0.946760000000     0.897690000000     0          
C8       C      0.905190000000     0.971390000000     0.905190000000     0          
C11      C      0.922220000000     0.016500000000     0.922220000000     0          
C12      C      0.932300000000     0.039200000000     0.932300000000     0          
N1       N      0.800470000000     0.699530000000     0.829190000000     0          
O5       O      0.351110000000     0.579290000000     0.178930000000     0          
O6       O      0.404820000000     0.565530000000     0.165370000000     0          
O7       O      0.312220000000     0.628750000000     0.157820000000     0          
C3       C      0.265870000000     0.642190000000     0.173120000000     0          
C4       C      0.243590000000     0.650600000000     0.181520000000     0          
H1       H      0.274250000000     0.627100000000     0.182330000000     0          
H2       H      0.235440000000     0.641690000000     0.196920000000     0          
O8       O      0.436630000000     0.590560000000     0.119630000000     0          
C9       C      0.482980000000     0.575260000000     0.106190000000     0          
C10      C      0.505260000000     0.566860000000     0.097780000000     0          
H3       H      0.474600000000     0.566050000000     0.121280000000     0          
H4       H      0.513410000000     0.551460000000     0.106690000000     0          
Zr2      Zr     0.404820000000     0.595180000000     0.140520000000     0          
O2       O      0.382480000000     0.617520000000     0.162730000000     0          
O5       O      0.920710000000     0.148890000000     0.178930000000     0          
O6       O      0.934470000000     0.095180000000     0.165370000000     0          
O7       O      0.871250000000     0.187780000000     0.157820000000     0          
C3       C      0.857810000000     0.234130000000     0.173120000000     0          
C4       C      0.849400000000     0.256410000000     0.181520000000     0          
H1       H      0.872900000000     0.225750000000     0.182330000000     0          
H2       H      0.858310000000     0.264560000000     0.196920000000     0          
O8       O      0.909440000000     0.063370000000     0.119630000000     0          
C9       C      0.924740000000     0.017020000000     0.106190000000     0          
C10      C      0.933140000000     0.994740000000     0.097780000000     0          
H3       H      0.933950000000     0.025400000000     0.121280000000     0          
H4       H      0.948540000000     0.986590000000     0.106690000000     0          
Zr2      Zr     0.904820000000     0.095180000000     0.140520000000     0          
O2       O      0.882480000000     0.117520000000     0.162730000000     0          
C1       C      0.853930000000     0.197910000000     0.146070000000     0          
C2       C      0.846430000000     0.222540000000     0.153570000000     0          
C5       C      0.829400000000     0.267650000000     0.170600000000     0          
C6       C      0.819320000000     0.290350000000     0.180680000000     0          
C7       C      0.897690000000     0.053240000000     0.102310000000     0          
C8       C      0.905190000000     0.028610000000     0.094810000000     0          
C11      C      0.922220000000     0.983500000000     0.077780000000     0          
C12      C      0.932300000000     0.960800000000     0.067700000000     0          
O5       O      0.648890000000     0.579290000000     0.821070000000     0          
O6       O      0.595180000000     0.565530000000     0.834630000000     0          
O7       O      0.687780000000     0.628750000000     0.842180000000     0          
C3       C      0.734130000000     0.642190000000     0.826880000000     0          
C4       C      0.756410000000     0.650600000000     0.818480000000     0          
H1       H      0.725750000000     0.627100000000     0.817670000000     0          
H2       H      0.764560000000     0.641690000000     0.803080000000     0          
O8       O      0.563370000000     0.590560000000     0.880370000000     0          
C9       C      0.517020000000     0.575260000000     0.893810000000     0          
C10      C      0.494740000000     0.566860000000     0.902220000000     0          
H3       H      0.525400000000     0.566050000000     0.878720000000     0          
H4       H      0.486590000000     0.551460000000     0.893310000000     0          
Zr2      Zr     0.595180000000     0.595180000000     0.859480000000     0          
O2       O      0.617520000000     0.617520000000     0.837270000000     0          
O5       O      0.351110000000     0.420710000000     0.821070000000     0          
O6       O      0.404820000000     0.434470000000     0.834630000000     0          
O7       O      0.312220000000     0.371250000000     0.842180000000     0          
C3       C      0.265870000000     0.357810000000     0.826880000000     0          
C4       C      0.243590000000     0.349400000000     0.818480000000     0          
H1       H      0.274250000000     0.372900000000     0.817670000000     0          
H2       H      0.235440000000     0.358310000000     0.803080000000     0          
O8       O      0.436630000000     0.409440000000     0.880370000000     0          
C9       C      0.482980000000     0.424740000000     0.893810000000     0          
C10      C      0.505260000000     0.433140000000     0.902220000000     0          
H3       H      0.474600000000     0.433950000000     0.878720000000     0          
H4       H      0.513410000000     0.448540000000     0.893310000000     0          
Zr2      Zr     0.404820000000     0.404820000000     0.859480000000     0          
O2       O      0.382480000000     0.382480000000     0.837270000000     0          
O5       O      0.178930000000     0.079290000000     0.851110000000     0          
O6       O      0.165370000000     0.065530000000     0.904820000000     0          
O7       O      0.157820000000     0.128750000000     0.812220000000     0          
C3       C      0.173120000000     0.142190000000     0.765870000000     0          
C4       C      0.181520000000     0.150600000000     0.743590000000     0          
H1       H      0.182330000000     0.127100000000     0.774250000000     0          
H2       H      0.196920000000     0.141690000000     0.735440000000     0          
O8       O      0.119630000000     0.090560000000     0.936630000000     0          
C9       C      0.106190000000     0.075260000000     0.982980000000     0          
C10      C      0.097780000000     0.066860000000     0.005260000000     0          
H3       H      0.121280000000     0.066050000000     0.974600000000     0          
H4       H      0.106690000000     0.051460000000     0.013410000000     0          
Zr1      Zr     0.154450000000     0.109000000000     0.845550000000     0          
O1       O      0.131840000000     0.086840000000     0.868160000000     0          
Zr2      Zr     0.140520000000     0.095180000000     0.904820000000     0          
O2       O      0.162730000000     0.117520000000     0.882480000000     0          
N1       N      0.170810000000     0.199530000000     0.699530000000     0          
N2       N      0.049320000000     0.077570000000     0.049320000000     0          
O5       O      0.579290000000     0.321070000000     0.148890000000     0          
O6       O      0.565530000000     0.334630000000     0.095180000000     0          
O7       O      0.628750000000     0.342180000000     0.187780000000     0          
C3       C      0.642190000000     0.326880000000     0.234130000000     0          
C4       C      0.650600000000     0.318480000000     0.256410000000     0          
H1       H      0.627100000000     0.317670000000     0.225750000000     0          
H2       H      0.641690000000     0.303080000000     0.264560000000     0          
O8       O      0.590560000000     0.380370000000     0.063370000000     0          
C9       C      0.575260000000     0.393810000000     0.017020000000     0          
C10      C      0.566860000000     0.402220000000     0.994740000000     0          
H3       H      0.566050000000     0.378720000000     0.025400000000     0          
H4       H      0.551460000000     0.393310000000     0.986590000000     0          
Zr1      Zr     0.609000000000     0.345550000000     0.154450000000     0          
O1       O      0.586840000000     0.368160000000     0.131840000000     0          
N1       N      0.699530000000     0.329190000000     0.300470000000     0          
N2       N      0.577570000000     0.450680000000     0.950680000000     0          
O5       O      0.821070000000     0.920710000000     0.851110000000     0          
O6       O      0.834630000000     0.934470000000     0.904820000000     0          
O7       O      0.842180000000     0.871250000000     0.812220000000     0          
C3       C      0.826880000000     0.857810000000     0.765870000000     0          
C4       C      0.818480000000     0.849400000000     0.743590000000     0          
H1       H      0.817670000000     0.872900000000     0.774250000000     0          
H2       H      0.803080000000     0.858310000000     0.735440000000     0          
O8       O      0.880370000000     0.909440000000     0.936630000000     0          
C9       C      0.893810000000     0.924740000000     0.982980000000     0          
C10      C      0.902220000000     0.933140000000     0.005260000000     0          
H3       H      0.878720000000     0.933950000000     0.974600000000     0          
H4       H      0.893310000000     0.948540000000     0.013410000000     0          
Zr1      Zr     0.845550000000     0.891000000000     0.845550000000     0          
O1       O      0.868160000000     0.913160000000     0.868160000000     0          
Zr2      Zr     0.859480000000     0.904820000000     0.904820000000     0          
O2       O      0.837270000000     0.882480000000     0.882480000000     0          
N1       N      0.829190000000     0.800470000000     0.699530000000     0          
N2       N      0.950680000000     0.922430000000     0.049320000000     0          
O5       O      0.420710000000     0.678930000000     0.148890000000     0          
O6       O      0.434470000000     0.665370000000     0.095180000000     0          
O7       O      0.371250000000     0.657820000000     0.187780000000     0          
C3       C      0.357810000000     0.673120000000     0.234130000000     0          
C4       C      0.349400000000     0.681520000000     0.256410000000     0          
H1       H      0.372900000000     0.682330000000     0.225750000000     0          
H2       H      0.358310000000     0.696920000000     0.264560000000     0          
O8       O      0.409440000000     0.619630000000     0.063370000000     0          
C9       C      0.424740000000     0.606190000000     0.017020000000     0          
C10      C      0.433140000000     0.597780000000     0.994740000000     0          
H3       H      0.433950000000     0.621280000000     0.025400000000     0          
H4       H      0.448540000000     0.606690000000     0.986590000000     0          
Zr1      Zr     0.391000000000     0.654450000000     0.154450000000     0          
O1       O      0.413160000000     0.631840000000     0.131840000000     0          
N1       N      0.300470000000     0.670810000000     0.300470000000     0          
N2       N      0.422430000000     0.549320000000     0.950680000000     0          
O5       O      0.178930000000     0.920710000000     0.148890000000     0          
O6       O      0.165370000000     0.934470000000     0.095180000000     0          
O7       O      0.157820000000     0.871250000000     0.187780000000     0          
C3       C      0.173120000000     0.857810000000     0.234130000000     0          
C4       C      0.181520000000     0.849400000000     0.256410000000     0          
H1       H      0.182330000000     0.872900000000     0.225750000000     0          
H2       H      0.196920000000     0.858310000000     0.264560000000     0          
O8       O      0.119630000000     0.909440000000     0.063370000000     0          
C9       C      0.106190000000     0.924740000000     0.017020000000     0          
C10      C      0.097780000000     0.933140000000     0.994740000000     0          
H3       H      0.121280000000     0.933950000000     0.025400000000     0          
H4       H      0.106690000000     0.948540000000     0.986590000000     0          
Zr1      Zr     0.154450000000     0.891000000000     0.154450000000     0          
O1       O      0.131840000000     0.913160000000     0.131840000000     0          
Zr2      Zr     0.140520000000     0.904820000000     0.095180000000     0          
O2       O      0.162730000000     0.882480000000     0.117520000000     0          
N1       N      0.170810000000     0.800470000000     0.300470000000     0          
N2       N      0.049320000000     0.922430000000     0.950680000000     0          
O5       O      0.420710000000     0.321070000000     0.851110000000     0          
O6       O      0.434470000000     0.334630000000     0.904820000000     0          
O7       O      0.371250000000     0.342180000000     0.812220000000     0          
C3       C      0.357810000000     0.326880000000     0.765870000000     0          
C4       C      0.349400000000     0.318480000000     0.743590000000     0          
H1       H      0.372900000000     0.317670000000     0.774250000000     0          
H2       H      0.358310000000     0.303080000000     0.735440000000     0          
O8       O      0.409440000000     0.380370000000     0.936630000000     0          
C9       C      0.424740000000     0.393810000000     0.982980000000     0          
C10      C      0.433140000000     0.402220000000     0.005260000000     0          
H3       H      0.433950000000     0.378720000000     0.974600000000     0          
H4       H      0.448540000000     0.393310000000     0.013410000000     0          
Zr1      Zr     0.391000000000     0.345550000000     0.845550000000     0          
O1       O      0.413160000000     0.368160000000     0.868160000000     0          
N1       N      0.300470000000     0.329190000000     0.699530000000     0          
N2       N      0.422430000000     0.450680000000     0.049320000000     0          
O5       O      0.821070000000     0.079290000000     0.148890000000     0          
O6       O      0.834630000000     0.065530000000     0.095180000000     0          
O7       O      0.842180000000     0.128750000000     0.187780000000     0          
C3       C      0.826880000000     0.142190000000     0.234130000000     0          
C4       C      0.818480000000     0.150600000000     0.256410000000     0          
H1       H      0.817670000000     0.127100000000     0.225750000000     0          
H2       H      0.803080000000     0.141690000000     0.264560000000     0          
O8       O      0.880370000000     0.090560000000     0.063370000000     0          
C9       C      0.893810000000     0.075260000000     0.017020000000     0          
C10      C      0.902220000000     0.066860000000     0.994740000000     0          
H3       H      0.878720000000     0.066050000000     0.025400000000     0          
H4       H      0.893310000000     0.051460000000     0.986590000000     0          
Zr1      Zr     0.845550000000     0.109000000000     0.154450000000     0          
O1       O      0.868160000000     0.086840000000     0.131840000000     0          
Zr2      Zr     0.859480000000     0.095180000000     0.095180000000     0          
O2       O      0.837270000000     0.117520000000     0.117520000000     0          
N1       N      0.829190000000     0.199530000000     0.300470000000     0          
N2       N      0.950680000000     0.077570000000     0.950680000000     0          
O5       O      0.579290000000     0.678930000000     0.851110000000     0          
O6       O      0.565530000000     0.665370000000     0.904820000000     0          
O7       O      0.628750000000     0.657820000000     0.812220000000     0          
C3       C      0.642190000000     0.673120000000     0.765870000000     0          
C4       C      0.650600000000     0.681520000000     0.743590000000     0          
H1       H      0.627100000000     0.682330000000     0.774250000000     0          
H2       H      0.641690000000     0.696920000000     0.735440000000     0          
O8       O      0.590560000000     0.619630000000     0.936630000000     0          
C9       C      0.575260000000     0.606190000000     0.982980000000     0          
C10      C      0.566860000000     0.597780000000     0.005260000000     0          
H3       H      0.566050000000     0.621280000000     0.974600000000     0          
H4       H      0.551460000000     0.606690000000     0.013410000000     0          
Zr1      Zr     0.609000000000     0.654450000000     0.845550000000     0          
O1       O      0.586840000000     0.631840000000     0.868160000000     0          
N1       N      0.699530000000     0.670810000000     0.699530000000     0          
N2       N      0.577570000000     0.549320000000     0.049320000000     0          
O5       O      0.851110000000     0.678930000000     0.579290000000     0          
O6       O      0.904820000000     0.665370000000     0.565530000000     0          
O7       O      0.812220000000     0.657820000000     0.628750000000     0          
C3       C      0.765870000000     0.673120000000     0.642190000000     0          
C4       C      0.743590000000     0.681520000000     0.650600000000     0          
H1       H      0.774250000000     0.682330000000     0.627100000000     0          
H2       H      0.735440000000     0.696920000000     0.641690000000     0          
O8       O      0.936630000000     0.619630000000     0.590560000000     0          
C9       C      0.982980000000     0.606190000000     0.575260000000     0          
C10      C      0.005260000000     0.597780000000     0.566860000000     0          
H3       H      0.974600000000     0.621280000000     0.566050000000     0          
H4       H      0.013410000000     0.606690000000     0.551460000000     0          
Zr1      Zr     0.845550000000     0.654450000000     0.609000000000     0          
O1       O      0.868160000000     0.631840000000     0.586840000000     0          
C1       C      0.802090000000     0.646070000000     0.646070000000     0          
C2       C      0.777460000000     0.653570000000     0.653570000000     0          
C5       C      0.732350000000     0.670600000000     0.670600000000     0          
C6       C      0.709650000000     0.680680000000     0.680680000000     0          
C7       C      0.946760000000     0.602310000000     0.602310000000     0          
C8       C      0.971390000000     0.594810000000     0.594810000000     0          
C11      C      0.016500000000     0.577780000000     0.577780000000     0          
C12      C      0.039200000000     0.567700000000     0.567700000000     0          
N2       N      0.049320000000     0.549320000000     0.577570000000     0          
O5       O      0.178930000000     0.648890000000     0.420710000000     0          
O6       O      0.165370000000     0.595180000000     0.434470000000     0          
O7       O      0.157820000000     0.687780000000     0.371250000000     0          
C3       C      0.173120000000     0.734130000000     0.357810000000     0          
C4       C      0.181520000000     0.756410000000     0.349400000000     0          
H1       H      0.182330000000     0.725750000000     0.372900000000     0          
H2       H      0.196920000000     0.764560000000     0.358310000000     0          
O8       O      0.119630000000     0.563370000000     0.409440000000     0          
C9       C      0.106190000000     0.517020000000     0.424740000000     0          
C10      C      0.097780000000     0.494740000000     0.433140000000     0          
H3       H      0.121280000000     0.525400000000     0.433950000000     0          
H4       H      0.106690000000     0.486590000000     0.448540000000     0          
Zr1      Zr     0.154450000000     0.654450000000     0.391000000000     0          
O1       O      0.131840000000     0.631840000000     0.413160000000     0          
Zr2      Zr     0.140520000000     0.595180000000     0.404820000000     0          
O2       O      0.162730000000     0.617520000000     0.382480000000     0          
N2       N      0.049320000000     0.450680000000     0.422430000000     0          
O5       O      0.148890000000     0.321070000000     0.579290000000     0          
O6       O      0.095180000000     0.334630000000     0.565530000000     0          
O7       O      0.187780000000     0.342180000000     0.628750000000     0          
C3       C      0.234130000000     0.326880000000     0.642190000000     0          
C4       C      0.256410000000     0.318480000000     0.650600000000     0          
H1       H      0.225750000000     0.317670000000     0.627100000000     0          
H2       H      0.264560000000     0.303080000000     0.641690000000     0          
O8       O      0.063370000000     0.380370000000     0.590560000000     0          
C9       C      0.017020000000     0.393810000000     0.575260000000     0          
C10      C      0.994740000000     0.402220000000     0.566860000000     0          
H3       H      0.025400000000     0.378720000000     0.566050000000     0          
H4       H      0.986590000000     0.393310000000     0.551460000000     0          
Zr1      Zr     0.154450000000     0.345550000000     0.609000000000     0          
O1       O      0.131840000000     0.368160000000     0.586840000000     0          
C1       C      0.197910000000     0.353930000000     0.646070000000     0          
C2       C      0.222540000000     0.346430000000     0.653570000000     0          
C5       C      0.267650000000     0.329400000000     0.670600000000     0          
C6       C      0.290350000000     0.319320000000     0.680680000000     0          
C7       C      0.053240000000     0.397690000000     0.602310000000     0          
C8       C      0.028610000000     0.405190000000     0.594810000000     0          
C11      C      0.983500000000     0.422220000000     0.577780000000     0          
C12      C      0.960800000000     0.432300000000     0.567700000000     0          
N2       N      0.950680000000     0.450680000000     0.577570000000     0          
O5       O      0.821070000000     0.351110000000     0.420710000000     0          
O6       O      0.834630000000     0.404820000000     0.434470000000     0          
O7       O      0.842180000000     0.312220000000     0.371250000000     0          
C3       C      0.826880000000     0.265870000000     0.357810000000     0          
C4       C      0.818480000000     0.243590000000     0.349400000000     0          
H1       H      0.817670000000     0.274250000000     0.372900000000     0          
H2       H      0.803080000000     0.235440000000     0.358310000000     0          
O8       O      0.880370000000     0.436630000000     0.409440000000     0          
C9       C      0.893810000000     0.482980000000     0.424740000000     0          
C10      C      0.902220000000     0.505260000000     0.433140000000     0          
H3       H      0.878720000000     0.474600000000     0.433950000000     0          
H4       H      0.893310000000     0.513410000000     0.448540000000     0          
Zr1      Zr     0.845550000000     0.345550000000     0.391000000000     0          
O1       O      0.868160000000     0.368160000000     0.413160000000     0          
Zr2      Zr     0.859480000000     0.404820000000     0.404820000000     0          
O2       O      0.837270000000     0.382480000000     0.382480000000     0          
N2       N      0.950680000000     0.549320000000     0.422430000000     0          
O5       O      0.851110000000     0.321070000000     0.420710000000     0          
O6       O      0.904820000000     0.334630000000     0.434470000000     0          
O7       O      0.812220000000     0.342180000000     0.371250000000     0          
C3       C      0.765870000000     0.326880000000     0.357810000000     0          
C4       C      0.743590000000     0.318480000000     0.349400000000     0          
H1       H      0.774250000000     0.317670000000     0.372900000000     0          
H2       H      0.735440000000     0.303080000000     0.358310000000     0          
O8       O      0.936630000000     0.380370000000     0.409440000000     0          
C9       C      0.982980000000     0.393810000000     0.424740000000     0          
C10      C      0.005260000000     0.402220000000     0.433140000000     0          
H3       H      0.974600000000     0.378720000000     0.433950000000     0          
H4       H      0.013410000000     0.393310000000     0.448540000000     0          
C1       C      0.802090000000     0.353930000000     0.353930000000     0          
C2       C      0.777460000000     0.346430000000     0.346430000000     0          
C5       C      0.732350000000     0.329400000000     0.329400000000     0          
C6       C      0.709650000000     0.319320000000     0.319320000000     0          
C7       C      0.946760000000     0.397690000000     0.397690000000     0          
C8       C      0.971390000000     0.405190000000     0.405190000000     0          
C11      C      0.016500000000     0.422220000000     0.422220000000     0          
C12      C      0.039200000000     0.432300000000     0.432300000000     0          
O5       O      0.821070000000     0.648890000000     0.579290000000     0          
O6       O      0.834630000000     0.595180000000     0.565530000000     0          
O7       O      0.842180000000     0.687780000000     0.628750000000     0          
C3       C      0.826880000000     0.734130000000     0.642190000000     0          
C4       C      0.818480000000     0.756410000000     0.650600000000     0          
H1       H      0.817670000000     0.725750000000     0.627100000000     0          
H2       H      0.803080000000     0.764560000000     0.641690000000     0          
O8       O      0.880370000000     0.563370000000     0.590560000000     0          
C9       C      0.893810000000     0.517020000000     0.575260000000     0          
C10      C      0.902220000000     0.494740000000     0.566860000000     0          
H3       H      0.878720000000     0.525400000000     0.566050000000     0          
H4       H      0.893310000000     0.486590000000     0.551460000000     0          
Zr2      Zr     0.859480000000     0.595180000000     0.595180000000     0          
O2       O      0.837270000000     0.617520000000     0.617520000000     0          
O5       O      0.148890000000     0.678930000000     0.420710000000     0          
O6       O      0.095180000000     0.665370000000     0.434470000000     0          
O7       O      0.187780000000     0.657820000000     0.371250000000     0          
C3       C      0.234130000000     0.673120000000     0.357810000000     0          
C4       C      0.256410000000     0.681520000000     0.349400000000     0          
H1       H      0.225750000000     0.682330000000     0.372900000000     0          
H2       H      0.264560000000     0.696920000000     0.358310000000     0          
O8       O      0.063370000000     0.619630000000     0.409440000000     0          
C9       C      0.017020000000     0.606190000000     0.424740000000     0          
C10      C      0.994740000000     0.597780000000     0.433140000000     0          
H3       H      0.025400000000     0.621280000000     0.433950000000     0          
H4       H      0.986590000000     0.606690000000     0.448540000000     0          
C1       C      0.197910000000     0.646070000000     0.353930000000     0          
C2       C      0.222540000000     0.653570000000     0.346430000000     0          
C5       C      0.267650000000     0.670600000000     0.329400000000     0          
C6       C      0.290350000000     0.680680000000     0.319320000000     0          
C7       C      0.053240000000     0.602310000000     0.397690000000     0          
C8       C      0.028610000000     0.594810000000     0.405190000000     0          
C11      C      0.983500000000     0.577780000000     0.422220000000     0          
C12      C      0.960800000000     0.567700000000     0.432300000000     0          
O5       O      0.178930000000     0.351110000000     0.579290000000     0          
O6       O      0.165370000000     0.404820000000     0.565530000000     0          
O7       O      0.157820000000     0.312220000000     0.628750000000     0          
C3       C      0.173120000000     0.265870000000     0.642190000000     0          
C4       C      0.181520000000     0.243590000000     0.650600000000     0          
H1       H      0.182330000000     0.274250000000     0.627100000000     0          
H2       H      0.196920000000     0.235440000000     0.641690000000     0          
O8       O      0.119630000000     0.436630000000     0.590560000000     0          
C9       C      0.106190000000     0.482980000000     0.575260000000     0          
C10      C      0.097780000000     0.505260000000     0.566860000000     0          
H3       H      0.121280000000     0.474600000000     0.566050000000     0          
H4       H      0.106690000000     0.513410000000     0.551460000000     0          
Zr2      Zr     0.140520000000     0.404820000000     0.595180000000     0          
O2       O      0.162730000000     0.382480000000     0.617520000000     0          
O5       O      0.579290000000     0.351110000000     0.178930000000     0          
O6       O      0.565530000000     0.404820000000     0.165370000000     0          
O7       O      0.628750000000     0.312220000000     0.157820000000     0          
C3       C      0.642190000000     0.265870000000     0.173120000000     0          
C4       C      0.650600000000     0.243590000000     0.181520000000     0          
H1       H      0.627100000000     0.274250000000     0.182330000000     0          
H2       H      0.641690000000     0.235440000000     0.196920000000     0          
O8       O      0.590560000000     0.436630000000     0.119630000000     0          
C9       C      0.575260000000     0.482980000000     0.106190000000     0          
C10      C      0.566860000000     0.505260000000     0.097780000000     0          
H3       H      0.566050000000     0.474600000000     0.121280000000     0          
H4       H      0.551460000000     0.513410000000     0.106690000000     0          
N1       N      0.699530000000     0.199530000000     0.170810000000     0          
O5       O      0.579290000000     0.648890000000     0.821070000000     0          
O6       O      0.565530000000     0.595180000000     0.834630000000     0          
O7       O      0.628750000000     0.687780000000     0.842180000000     0          
C3       C      0.642190000000     0.734130000000     0.826880000000     0          
C4       C      0.650600000000     0.756410000000     0.818480000000     0          
H1       H      0.627100000000     0.725750000000     0.817670000000     0          
H2       H      0.641690000000     0.764560000000     0.803080000000     0          
O8       O      0.590560000000     0.563370000000     0.880370000000     0          
C9       C      0.575260000000     0.517020000000     0.893810000000     0          
C10      C      0.566860000000     0.494740000000     0.902220000000     0          
H3       H      0.566050000000     0.525400000000     0.878720000000     0          
H4       H      0.551460000000     0.486590000000     0.893310000000     0          
N1       N      0.699530000000     0.800470000000     0.829190000000     0          
O5       O      0.148890000000     0.920710000000     0.178930000000     0          
O6       O      0.095180000000     0.934470000000     0.165370000000     0          
O7       O      0.187780000000     0.871250000000     0.157820000000     0          
C3       C      0.234130000000     0.857810000000     0.173120000000     0          
C4       C      0.256410000000     0.849400000000     0.181520000000     0          
H1       H      0.225750000000     0.872900000000     0.182330000000     0          
H2       H      0.264560000000     0.858310000000     0.196920000000     0          
O8       O      0.063370000000     0.909440000000     0.119630000000     0          
C9       C      0.017020000000     0.924740000000     0.106190000000     0          
C10      C      0.994740000000     0.933140000000     0.097780000000     0          
H3       H      0.025400000000     0.933950000000     0.121280000000     0          
H4       H      0.986590000000     0.948540000000     0.106690000000     0          
C1       C      0.197910000000     0.853930000000     0.146070000000     0          
C2       C      0.222540000000     0.846430000000     0.153570000000     0          
C5       C      0.267650000000     0.829400000000     0.170600000000     0          
C6       C      0.290350000000     0.819320000000     0.180680000000     0          
C7       C      0.053240000000     0.897690000000     0.102310000000     0          
C8       C      0.028610000000     0.905190000000     0.094810000000     0          
C11      C      0.983500000000     0.922220000000     0.077780000000     0          
C12      C      0.960800000000     0.932300000000     0.067700000000     0          
N1       N      0.300470000000     0.800470000000     0.170810000000     0          
O5       O      0.420710000000     0.351110000000     0.821070000000     0          
O6       O      0.434470000000     0.404820000000     0.834630000000     0          
O7       O      0.371250000000     0.312220000000     0.842180000000     0          
C3       C      0.357810000000     0.265870000000     0.826880000000     0          
C4       C      0.349400000000     0.243590000000     0.818480000000     0          
H1       H      0.372900000000     0.274250000000     0.817670000000     0          
H2       H      0.358310000000     0.235440000000     0.803080000000     0          
O8       O      0.409440000000     0.436630000000     0.880370000000     0          
C9       C      0.424740000000     0.482980000000     0.893810000000     0          
C10      C      0.433140000000     0.505260000000     0.902220000000     0          
H3       H      0.433950000000     0.474600000000     0.878720000000     0          
H4       H      0.448540000000     0.513410000000     0.893310000000     0          
N1       N      0.300470000000     0.199530000000     0.829190000000     0          
O5       O      0.851110000000     0.079290000000     0.178930000000     0          
O6       O      0.904820000000     0.065530000000     0.165370000000     0          
O7       O      0.812220000000     0.128750000000     0.157820000000     0          
C3       C      0.765870000000     0.142190000000     0.173120000000     0          
C4       C      0.743590000000     0.150600000000     0.181520000000     0          
H1       H      0.774250000000     0.127100000000     0.182330000000     0          
H2       H      0.735440000000     0.141690000000     0.196920000000     0          
O8       O      0.936630000000     0.090560000000     0.119630000000     0          
C9       C      0.982980000000     0.075260000000     0.106190000000     0          
C10      C      0.005260000000     0.066860000000     0.097780000000     0          
H3       H      0.974600000000     0.066050000000     0.121280000000     0          
H4       H      0.013410000000     0.051460000000     0.106690000000     0          
C1       C      0.802090000000     0.146070000000     0.146070000000     0          
C2       C      0.777460000000     0.153570000000     0.153570000000     0          
C5       C      0.732350000000     0.170600000000     0.170600000000     0          
C6       C      0.709650000000     0.180680000000     0.180680000000     0          
C7       C      0.946760000000     0.102310000000     0.102310000000     0          
C8       C      0.971390000000     0.094810000000     0.094810000000     0          
C11      C      0.016500000000     0.077780000000     0.077780000000     0          
C12      C      0.039200000000     0.067700000000     0.067700000000     0          
O5       O      0.420710000000     0.648890000000     0.178930000000     0          
O6       O      0.434470000000     0.595180000000     0.165370000000     0          
O7       O      0.371250000000     0.687780000000     0.157820000000     0          
C3       C      0.357810000000     0.734130000000     0.173120000000     0          
C4       C      0.349400000000     0.756410000000     0.181520000000     0          
H1       H      0.372900000000     0.725750000000     0.182330000000     0          
H2       H      0.358310000000     0.764560000000     0.196920000000     0          
O8       O      0.409440000000     0.563370000000     0.119630000000     0          
C9       C      0.424740000000     0.517020000000     0.106190000000     0          
C10      C      0.433140000000     0.494740000000     0.097780000000     0          
H3       H      0.433950000000     0.525400000000     0.121280000000     0          
H4       H      0.448540000000     0.486590000000     0.106690000000     0          
O5       O      0.148890000000     0.079290000000     0.821070000000     0          
O6       O      0.095180000000     0.065530000000     0.834630000000     0          
O7       O      0.187780000000     0.128750000000     0.842180000000     0          
C3       C      0.234130000000     0.142190000000     0.826880000000     0          
C4       C      0.256410000000     0.150600000000     0.818480000000     0          
H1       H      0.225750000000     0.127100000000     0.817670000000     0          
H2       H      0.264560000000     0.141690000000     0.803080000000     0          
O8       O      0.063370000000     0.090560000000     0.880370000000     0          
C9       C      0.017020000000     0.075260000000     0.893810000000     0          
C10      C      0.994740000000     0.066860000000     0.902220000000     0          
H3       H      0.025400000000     0.066050000000     0.878720000000     0          
H4       H      0.986590000000     0.051460000000     0.893310000000     0          
C1       C      0.197910000000     0.146070000000     0.853930000000     0          
C2       C      0.222540000000     0.153570000000     0.846430000000     0          
C5       C      0.267650000000     0.170600000000     0.829400000000     0          
C6       C      0.290350000000     0.180680000000     0.819320000000     0          
C7       C      0.053240000000     0.102310000000     0.897690000000     0          
C8       C      0.028610000000     0.094810000000     0.905190000000     0          
C11      C      0.983500000000     0.077780000000     0.922220000000     0          
C12      C      0.960800000000     0.067700000000     0.932300000000     0          
O5       O      0.851110000000     0.920710000000     0.821070000000     0          
O6       O      0.904820000000     0.934470000000     0.834630000000     0          
O7       O      0.812220000000     0.871250000000     0.842180000000     0          
C3       C      0.765870000000     0.857810000000     0.826880000000     0          
C4       C      0.743590000000     0.849400000000     0.818480000000     0          
H1       H      0.774250000000     0.872900000000     0.817670000000     0          
H2       H      0.735440000000     0.858310000000     0.803080000000     0          
O8       O      0.936630000000     0.909440000000     0.880370000000     0          
C9       C      0.982980000000     0.924740000000     0.893810000000     0          
C10      C      0.005260000000     0.933140000000     0.902220000000     0          
H3       H      0.974600000000     0.933950000000     0.878720000000     0          
H4       H      0.013410000000     0.948540000000     0.893310000000     0          
C1       C      0.802090000000     0.853930000000     0.853930000000     0          
C2       C      0.777460000000     0.846430000000     0.846430000000     0          
C5       C      0.732350000000     0.829400000000     0.829400000000     0          
C6       C      0.709650000000     0.819320000000     0.819320000000     0          
C7       C      0.946760000000     0.897690000000     0.897690000000     0          
C8       C      0.971390000000     0.905190000000     0.905190000000     0          
C11      C      0.016500000000     0.922220000000     0.922220000000     0          
C12      C      0.039200000000     0.932300000000     0.932300000000     0          
O5       O      0.178930000000     0.579290000000     0.351110000000     0          
O6       O      0.165370000000     0.565530000000     0.404820000000     0          
O7       O      0.157820000000     0.628750000000     0.312220000000     0          
C3       C      0.173120000000     0.642190000000     0.265870000000     0          
C4       C      0.181520000000     0.650600000000     0.243590000000     0          
H1       H      0.182330000000     0.627100000000     0.274250000000     0          
H2       H      0.196920000000     0.641690000000     0.235440000000     0          
O8       O      0.119630000000     0.590560000000     0.436630000000     0          
C9       C      0.106190000000     0.575260000000     0.482980000000     0          
C10      C      0.097780000000     0.566860000000     0.505260000000     0          
H3       H      0.121280000000     0.566050000000     0.474600000000     0          
H4       H      0.106690000000     0.551460000000     0.513410000000     0          
Zr1      Zr     0.154450000000     0.609000000000     0.345550000000     0          
O1       O      0.131840000000     0.586840000000     0.368160000000     0          
N1       N      0.170810000000     0.699530000000     0.199530000000     0          
N2       N      0.049320000000     0.577570000000     0.549320000000     0          
O5       O      0.579290000000     0.821070000000     0.648890000000     0          
O6       O      0.565530000000     0.834630000000     0.595180000000     0          
O7       O      0.628750000000     0.842180000000     0.687780000000     0          
C3       C      0.642190000000     0.826880000000     0.734130000000     0          
C4       C      0.650600000000     0.818480000000     0.756410000000     0          
H1       H      0.627100000000     0.817670000000     0.725750000000     0          
H2       H      0.641690000000     0.803080000000     0.764560000000     0          
O8       O      0.590560000000     0.880370000000     0.563370000000     0          
C9       C      0.575260000000     0.893810000000     0.517020000000     0          
C10      C      0.566860000000     0.902220000000     0.494740000000     0          
H3       H      0.566050000000     0.878720000000     0.525400000000     0          
H4       H      0.551460000000     0.893310000000     0.486590000000     0          
Zr1      Zr     0.609000000000     0.845550000000     0.654450000000     0          
O1       O      0.586840000000     0.868160000000     0.631840000000     0          
N1       N      0.699530000000     0.829190000000     0.800470000000     0          
N2       N      0.577570000000     0.950680000000     0.450680000000     0          
O5       O      0.821070000000     0.420710000000     0.351110000000     0          
O6       O      0.834630000000     0.434470000000     0.404820000000     0          
O7       O      0.842180000000     0.371250000000     0.312220000000     0          
C3       C      0.826880000000     0.357810000000     0.265870000000     0          
C4       C      0.818480000000     0.349400000000     0.243590000000     0          
H1       H      0.817670000000     0.372900000000     0.274250000000     0          
H2       H      0.803080000000     0.358310000000     0.235440000000     0          
O8       O      0.880370000000     0.409440000000     0.436630000000     0          
C9       C      0.893810000000     0.424740000000     0.482980000000     0          
C10      C      0.902220000000     0.433140000000     0.505260000000     0          
H3       H      0.878720000000     0.433950000000     0.474600000000     0          
H4       H      0.893310000000     0.448540000000     0.513410000000     0          
Zr1      Zr     0.845550000000     0.391000000000     0.345550000000     0          
O1       O      0.868160000000     0.413160000000     0.368160000000     0          
N1       N      0.829190000000     0.300470000000     0.199530000000     0          
N2       N      0.950680000000     0.422430000000     0.549320000000     0          
O5       O      0.420710000000     0.178930000000     0.648890000000     0          
O6       O      0.434470000000     0.165370000000     0.595180000000     0          
O7       O      0.371250000000     0.157820000000     0.687780000000     0          
C3       C      0.357810000000     0.173120000000     0.734130000000     0          
C4       C      0.349400000000     0.181520000000     0.756410000000     0          
H1       H      0.372900000000     0.182330000000     0.725750000000     0          
H2       H      0.358310000000     0.196920000000     0.764560000000     0          
O8       O      0.409440000000     0.119630000000     0.563370000000     0          
C9       C      0.424740000000     0.106190000000     0.517020000000     0          
C10      C      0.433140000000     0.097780000000     0.494740000000     0          
H3       H      0.433950000000     0.121280000000     0.525400000000     0          
H4       H      0.448540000000     0.106690000000     0.486590000000     0          
Zr1      Zr     0.391000000000     0.154450000000     0.654450000000     0          
O1       O      0.413160000000     0.131840000000     0.631840000000     0          
N1       N      0.300470000000     0.170810000000     0.800470000000     0          
N2       N      0.422430000000     0.049320000000     0.450680000000     0          
O5       O      0.178930000000     0.420710000000     0.648890000000     0          
O6       O      0.165370000000     0.434470000000     0.595180000000     0          
O7       O      0.157820000000     0.371250000000     0.687780000000     0          
C3       C      0.173120000000     0.357810000000     0.734130000000     0          
C4       C      0.181520000000     0.349400000000     0.756410000000     0          
H1       H      0.182330000000     0.372900000000     0.725750000000     0          
H2       H      0.196920000000     0.358310000000     0.764560000000     0          
O8       O      0.119630000000     0.409440000000     0.563370000000     0          
C9       C      0.106190000000     0.424740000000     0.517020000000     0          
C10      C      0.097780000000     0.433140000000     0.494740000000     0          
H3       H      0.121280000000     0.433950000000     0.525400000000     0          
H4       H      0.106690000000     0.448540000000     0.486590000000     0          
Zr1      Zr     0.154450000000     0.391000000000     0.654450000000     0          
O1       O      0.131840000000     0.413160000000     0.631840000000     0          
N1       N      0.170810000000     0.300470000000     0.800470000000     0          
N2       N      0.049320000000     0.422430000000     0.450680000000     0          
O5       O      0.420710000000     0.821070000000     0.351110000000     0          
O6       O      0.434470000000     0.834630000000     0.404820000000     0          
O7       O      0.371250000000     0.842180000000     0.312220000000     0          
C3       C      0.357810000000     0.826880000000     0.265870000000     0          
C4       C      0.349400000000     0.818480000000     0.243590000000     0          
H1       H      0.372900000000     0.817670000000     0.274250000000     0          
H2       H      0.358310000000     0.803080000000     0.235440000000     0          
O8       O      0.409440000000     0.880370000000     0.436630000000     0          
C9       C      0.424740000000     0.893810000000     0.482980000000     0          
C10      C      0.433140000000     0.902220000000     0.505260000000     0          
H3       H      0.433950000000     0.878720000000     0.474600000000     0          
H4       H      0.448540000000     0.893310000000     0.513410000000     0          
Zr1      Zr     0.391000000000     0.845550000000     0.345550000000     0          
O1       O      0.413160000000     0.868160000000     0.368160000000     0          
N1       N      0.300470000000     0.829190000000     0.199530000000     0          
N2       N      0.422430000000     0.950680000000     0.549320000000     0          
O5       O      0.821070000000     0.579290000000     0.648890000000     0          
O6       O      0.834630000000     0.565530000000     0.595180000000     0          
O7       O      0.842180000000     0.628750000000     0.687780000000     0          
C3       C      0.826880000000     0.642190000000     0.734130000000     0          
C4       C      0.818480000000     0.650600000000     0.756410000000     0          
H1       H      0.817670000000     0.627100000000     0.725750000000     0          
H2       H      0.803080000000     0.641690000000     0.764560000000     0          
O8       O      0.880370000000     0.590560000000     0.563370000000     0          
C9       C      0.893810000000     0.575260000000     0.517020000000     0          
C10      C      0.902220000000     0.566860000000     0.494740000000     0          
H3       H      0.878720000000     0.566050000000     0.525400000000     0          
H4       H      0.893310000000     0.551460000000     0.486590000000     0          
Zr1      Zr     0.845550000000     0.609000000000     0.654450000000     0          
O1       O      0.868160000000     0.586840000000     0.631840000000     0          
N1       N      0.829190000000     0.699530000000     0.800470000000     0          
N2       N      0.950680000000     0.577570000000     0.450680000000     0          
O5       O      0.579290000000     0.178930000000     0.351110000000     0          
O6       O      0.565530000000     0.165370000000     0.404820000000     0          
O7       O      0.628750000000     0.157820000000     0.312220000000     0          
C3       C      0.642190000000     0.173120000000     0.265870000000     0          
C4       C      0.650600000000     0.181520000000     0.243590000000     0          
H1       H      0.627100000000     0.182330000000     0.274250000000     0          
H2       H      0.641690000000     0.196920000000     0.235440000000     0          
O8       O      0.590560000000     0.119630000000     0.436630000000     0          
C9       C      0.575260000000     0.106190000000     0.482980000000     0          
C10      C      0.566860000000     0.097780000000     0.505260000000     0          
H3       H      0.566050000000     0.121280000000     0.474600000000     0          
H4       H      0.551460000000     0.106690000000     0.513410000000     0          
Zr1      Zr     0.609000000000     0.154450000000     0.345550000000     0          
O1       O      0.586840000000     0.131840000000     0.368160000000     0          
N1       N      0.699530000000     0.170810000000     0.199530000000     0          
N2       N      0.577570000000     0.049320000000     0.549320000000     0          
O5       O      0.851110000000     0.178930000000     0.079290000000     0          
O6       O      0.904820000000     0.165370000000     0.065530000000     0          
O7       O      0.812220000000     0.157820000000     0.128750000000     0          
C3       C      0.765870000000     0.173120000000     0.142190000000     0          
C4       C      0.743590000000     0.181520000000     0.150600000000     0          
H1       H      0.774250000000     0.182330000000     0.127100000000     0          
H2       H      0.735440000000     0.196920000000     0.141690000000     0          
O8       O      0.936630000000     0.119630000000     0.090560000000     0          
C9       C      0.982980000000     0.106190000000     0.075260000000     0          
C10      C      0.005260000000     0.097780000000     0.066860000000     0          
H3       H      0.974600000000     0.121280000000     0.066050000000     0          
H4       H      0.013410000000     0.106690000000     0.051460000000     0          
Zr1      Zr     0.845550000000     0.154450000000     0.109000000000     0          
O1       O      0.868160000000     0.131840000000     0.086840000000     0          
N2       N      0.049320000000     0.049320000000     0.077570000000     0          
O5       O      0.178930000000     0.148890000000     0.920710000000     0          
O6       O      0.165370000000     0.095180000000     0.934470000000     0          
O7       O      0.157820000000     0.187780000000     0.871250000000     0          
C3       C      0.173120000000     0.234130000000     0.857810000000     0          
C4       C      0.181520000000     0.256410000000     0.849400000000     0          
H1       H      0.182330000000     0.225750000000     0.872900000000     0          
H2       H      0.196920000000     0.264560000000     0.858310000000     0          
O8       O      0.119630000000     0.063370000000     0.909440000000     0          
C9       C      0.106190000000     0.017020000000     0.924740000000     0          
C10      C      0.097780000000     0.994740000000     0.933140000000     0          
H3       H      0.121280000000     0.025400000000     0.933950000000     0          
H4       H      0.106690000000     0.986590000000     0.948540000000     0          
Zr1      Zr     0.154450000000     0.154450000000     0.891000000000     0          
O1       O      0.131840000000     0.131840000000     0.913160000000     0          
N2       N      0.049320000000     0.950680000000     0.922430000000     0          
O5       O      0.148890000000     0.821070000000     0.079290000000     0          
O6       O      0.095180000000     0.834630000000     0.065530000000     0          
O7       O      0.187780000000     0.842180000000     0.128750000000     0          
C3       C      0.234130000000     0.826880000000     0.142190000000     0          
C4       C      0.256410000000     0.818480000000     0.150600000000     0          
H1       H      0.225750000000     0.817670000000     0.127100000000     0          
H2       H      0.264560000000     0.803080000000     0.141690000000     0          
O8       O      0.063370000000     0.880370000000     0.090560000000     0          
C9       C      0.017020000000     0.893810000000     0.075260000000     0          
C10      C      0.994740000000     0.902220000000     0.066860000000     0          
H3       H      0.025400000000     0.878720000000     0.066050000000     0          
H4       H      0.986590000000     0.893310000000     0.051460000000     0          
Zr1      Zr     0.154450000000     0.845550000000     0.109000000000     0          
O1       O      0.131840000000     0.868160000000     0.086840000000     0          
N2       N      0.950680000000     0.950680000000     0.077570000000     0          
O5       O      0.821070000000     0.851110000000     0.920710000000     0          
O6       O      0.834630000000     0.904820000000     0.934470000000     0          
O7       O      0.842180000000     0.812220000000     0.871250000000     0          
C3       C      0.826880000000     0.765870000000     0.857810000000     0          
C4       C      0.818480000000     0.743590000000     0.849400000000     0          
H1       H      0.817670000000     0.774250000000     0.872900000000     0          
H2       H      0.803080000000     0.735440000000     0.858310000000     0          
O8       O      0.880370000000     0.936630000000     0.909440000000     0          
C9       C      0.893810000000     0.982980000000     0.924740000000     0          
C10      C      0.902220000000     0.005260000000     0.933140000000     0          
H3       H      0.878720000000     0.974600000000     0.933950000000     0          
H4       H      0.893310000000     0.013410000000     0.948540000000     0          
Zr1      Zr     0.845550000000     0.845550000000     0.891000000000     0          
O1       O      0.868160000000     0.868160000000     0.913160000000     0          
N2       N      0.950680000000     0.049320000000     0.922430000000     0          
O5       O      0.851110000000     0.821070000000     0.920710000000     0          
O6       O      0.904820000000     0.834630000000     0.934470000000     0          
O7       O      0.812220000000     0.842180000000     0.871250000000     0          
C3       C      0.765870000000     0.826880000000     0.857810000000     0          
C4       C      0.743590000000     0.818480000000     0.849400000000     0          
H1       H      0.774250000000     0.817670000000     0.872900000000     0          
H2       H      0.735440000000     0.803080000000     0.858310000000     0          
O8       O      0.936630000000     0.880370000000     0.909440000000     0          
C9       C      0.982980000000     0.893810000000     0.924740000000     0          
C10      C      0.005260000000     0.902220000000     0.933140000000     0          
H3       H      0.974600000000     0.878720000000     0.933950000000     0          
H4       H      0.013410000000     0.893310000000     0.948540000000     0          
O5       O      0.821070000000     0.148890000000     0.079290000000     0          
O6       O      0.834630000000     0.095180000000     0.065530000000     0          
O7       O      0.842180000000     0.187780000000     0.128750000000     0          
C3       C      0.826880000000     0.234130000000     0.142190000000     0          
C4       C      0.818480000000     0.256410000000     0.150600000000     0          
H1       H      0.817670000000     0.225750000000     0.127100000000     0          
H2       H      0.803080000000     0.264560000000     0.141690000000     0          
O8       O      0.880370000000     0.063370000000     0.090560000000     0          
C9       C      0.893810000000     0.017020000000     0.075260000000     0          
C10      C      0.902220000000     0.994740000000     0.066860000000     0          
H3       H      0.878720000000     0.025400000000     0.066050000000     0          
H4       H      0.893310000000     0.986590000000     0.051460000000     0          
O5       O      0.148890000000     0.178930000000     0.920710000000     0          
O6       O      0.095180000000     0.165370000000     0.934470000000     0          
O7       O      0.187780000000     0.157820000000     0.871250000000     0          
C3       C      0.234130000000     0.173120000000     0.857810000000     0          
C4       C      0.256410000000     0.181520000000     0.849400000000     0          
H1       H      0.225750000000     0.182330000000     0.872900000000     0          
H2       H      0.264560000000     0.196920000000     0.858310000000     0          
O8       O      0.063370000000     0.119630000000     0.909440000000     0          
C9       C      0.017020000000     0.106190000000     0.924740000000     0          
C10      C      0.994740000000     0.097780000000     0.933140000000     0          
H3       H      0.025400000000     0.121280000000     0.933950000000     0          
H4       H      0.986590000000     0.106690000000     0.948540000000     0          
O5       O      0.178930000000     0.851110000000     0.079290000000     0          
O6       O      0.165370000000     0.904820000000     0.065530000000     0          
O7       O      0.157820000000     0.812220000000     0.128750000000     0          
C3       C      0.173120000000     0.765870000000     0.142190000000     0          
C4       C      0.181520000000     0.743590000000     0.150600000000     0          
H1       H      0.182330000000     0.774250000000     0.127100000000     0          
H2       H      0.196920000000     0.735440000000     0.141690000000     0          
O8       O      0.119630000000     0.936630000000     0.090560000000     0          
C9       C      0.106190000000     0.982980000000     0.075260000000     0          
C10      C      0.097780000000     0.005260000000     0.066860000000     0          
H3       H      0.121280000000     0.974600000000     0.066050000000     0          
H4       H      0.106690000000     0.013410000000     0.051460000000     0          
O5       O      0.579290000000     0.851110000000     0.678930000000     0          
O6       O      0.565530000000     0.904820000000     0.665370000000     0          
O7       O      0.628750000000     0.812220000000     0.657820000000     0          
C3       C      0.642190000000     0.765870000000     0.673120000000     0          
C4       C      0.650600000000     0.743590000000     0.681520000000     0          
H1       H      0.627100000000     0.774250000000     0.682330000000     0          
H2       H      0.641690000000     0.735440000000     0.696920000000     0          
O8       O      0.590560000000     0.936630000000     0.619630000000     0          
C9       C      0.575260000000     0.982980000000     0.606190000000     0          
C10      C      0.566860000000     0.005260000000     0.597780000000     0          
H3       H      0.566050000000     0.974600000000     0.621280000000     0          
H4       H      0.551460000000     0.013410000000     0.606690000000     0          
N1       N      0.699530000000     0.699530000000     0.670810000000     0          
O5       O      0.579290000000     0.148890000000     0.321070000000     0          
O6       O      0.565530000000     0.095180000000     0.334630000000     0          
O7       O      0.628750000000     0.187780000000     0.342180000000     0          
C3       C      0.642190000000     0.234130000000     0.326880000000     0          
C4       C      0.650600000000     0.256410000000     0.318480000000     0          
H1       H      0.627100000000     0.225750000000     0.317670000000     0          
H2       H      0.641690000000     0.264560000000     0.303080000000     0          
O8       O      0.590560000000     0.063370000000     0.380370000000     0          
C9       C      0.575260000000     0.017020000000     0.393810000000     0          
C10      C      0.566860000000     0.994740000000     0.402220000000     0          
H3       H      0.566050000000     0.025400000000     0.378720000000     0          
H4       H      0.551460000000     0.986590000000     0.393310000000     0          
N1       N      0.699530000000     0.300470000000     0.329190000000     0          
O5       O      0.148890000000     0.420710000000     0.678930000000     0          
O6       O      0.095180000000     0.434470000000     0.665370000000     0          
O7       O      0.187780000000     0.371250000000     0.657820000000     0          
C3       C      0.234130000000     0.357810000000     0.673120000000     0          
C4       C      0.256410000000     0.349400000000     0.681520000000     0          
H1       H      0.225750000000     0.372900000000     0.682330000000     0          
H2       H      0.264560000000     0.358310000000     0.696920000000     0          
O8       O      0.063370000000     0.409440000000     0.619630000000     0          
C9       C      0.017020000000     0.424740000000     0.606190000000     0          
C10      C      0.994740000000     0.433140000000     0.597780000000     0          
H3       H      0.025400000000     0.433950000000     0.621280000000     0          
H4       H      0.986590000000     0.448540000000     0.606690000000     0          
N1       N      0.300470000000     0.300470000000     0.670810000000     0          
O5       O      0.420710000000     0.851110000000     0.321070000000     0          
O6       O      0.434470000000     0.904820000000     0.334630000000     0          
O7       O      0.371250000000     0.812220000000     0.342180000000     0          
C3       C      0.357810000000     0.765870000000     0.326880000000     0          
C4       C      0.349400000000     0.743590000000     0.318480000000     0          
H1       H      0.372900000000     0.774250000000     0.317670000000     0          
H2       H      0.358310000000     0.735440000000     0.303080000000     0          
O8       O      0.409440000000     0.936630000000     0.380370000000     0          
C9       C      0.424740000000     0.982980000000     0.393810000000     0          
C10      C      0.433140000000     0.005260000000     0.402220000000     0          
H3       H      0.433950000000     0.974600000000     0.378720000000     0          
H4       H      0.448540000000     0.013410000000     0.393310000000     0          
N1       N      0.300470000000     0.699530000000     0.329190000000     0          
O5       O      0.851110000000     0.579290000000     0.678930000000     0          
O6       O      0.904820000000     0.565530000000     0.665370000000     0          
O7       O      0.812220000000     0.628750000000     0.657820000000     0          
C3       C      0.765870000000     0.642190000000     0.673120000000     0          
C4       C      0.743590000000     0.650600000000     0.681520000000     0          
H1       H      0.774250000000     0.627100000000     0.682330000000     0          
H2       H      0.735440000000     0.641690000000     0.696920000000     0          
O8       O      0.936630000000     0.590560000000     0.619630000000     0          
C9       C      0.982980000000     0.575260000000     0.606190000000     0          
C10      C      0.005260000000     0.566860000000     0.597780000000     0          
H3       H      0.974600000000     0.566050000000     0.621280000000     0          
H4       H      0.013410000000     0.551460000000     0.606690000000     0          
O5       O      0.420710000000     0.148890000000     0.678930000000     0          
O6       O      0.434470000000     0.095180000000     0.665370000000     0          
O7       O      0.371250000000     0.187780000000     0.657820000000     0          
C3       C      0.357810000000     0.234130000000     0.673120000000     0          
C4       C      0.349400000000     0.256410000000     0.681520000000     0          
H1       H      0.372900000000     0.225750000000     0.682330000000     0          
H2       H      0.358310000000     0.264560000000     0.696920000000     0          
O8       O      0.409440000000     0.063370000000     0.619630000000     0          
C9       C      0.424740000000     0.017020000000     0.606190000000     0          
C10      C      0.433140000000     0.994740000000     0.597780000000     0          
H3       H      0.433950000000     0.025400000000     0.621280000000     0          
H4       H      0.448540000000     0.986590000000     0.606690000000     0          
O5       O      0.148890000000     0.579290000000     0.321070000000     0          
O6       O      0.095180000000     0.565530000000     0.334630000000     0          
O7       O      0.187780000000     0.628750000000     0.342180000000     0          
C3       C      0.234130000000     0.642190000000     0.326880000000     0          
C4       C      0.256410000000     0.650600000000     0.318480000000     0          
H1       H      0.225750000000     0.627100000000     0.317670000000     0          
H2       H      0.264560000000     0.641690000000     0.303080000000     0          
O8       O      0.063370000000     0.590560000000     0.380370000000     0          
C9       C      0.017020000000     0.575260000000     0.393810000000     0          
C10      C      0.994740000000     0.566860000000     0.402220000000     0          
H3       H      0.025400000000     0.566050000000     0.378720000000     0          
H4       H      0.986590000000     0.551460000000     0.393310000000     0          
O5       O      0.851110000000     0.420710000000     0.321070000000     0          
O6       O      0.904820000000     0.434470000000     0.334630000000     0          
O7       O      0.812220000000     0.371250000000     0.342180000000     0          
C3       C      0.765870000000     0.357810000000     0.326880000000     0          
C4       C      0.743590000000     0.349400000000     0.318480000000     0          
H1       H      0.774250000000     0.372900000000     0.317670000000     0          
H2       H      0.735440000000     0.358310000000     0.303080000000     0          
O8       O      0.936630000000     0.409440000000     0.380370000000     0          
C9       C      0.982980000000     0.424740000000     0.393810000000     0          
C10      C      0.005260000000     0.433140000000     0.402220000000     0          
H3       H      0.974600000000     0.433950000000     0.378720000000     0          
H4       H      0.013410000000     0.448540000000     0.393310000000     0          


