data_GARQUO

_audit_creation_method RASPA-1.0
_audit_creation_date 2020-4-3
_audit_author_name 'Rocio Bueno-Perez'

_cell_length_a    29.999
_cell_length_b    29.999
_cell_length_c    29.999
_cell_angle_alpha 90
_cell_angle_beta  90
_cell_angle_gamma 90
_cell_volume      26997.3

_symmetry_cell_setting          triclinic
_symmetry_space_group_name_Hall 'P 1'
_symmetry_space_group_name_H-M  'P 1'
_symmetry_Int_Tables_number     1

_symmetry_equiv_pos_as_xyz 'x,y,z'

loop_
_atom_site_label
_atom_site_type_symbol
_atom_site_fract_x
_atom_site_fract_y
_atom_site_fract_z
_atom_site_charge
Zr1      Zr     0.000000000000     0.584550000000     0.500000000000     0          
Zr2      Zr     0.000000000000     0.084550000000     0.000000000000     0          
Zr3      Zr     0.500000000000     0.084550000000     0.500000000000     0          
Zr4      Zr     0.000000000000     0.415450000000     0.500000000000     0          
Zr5      Zr     0.000000000000     0.915450000000     0.000000000000     0          
Zr6      Zr     0.500000000000     0.915450000000     0.500000000000     0          
Zr7      Zr     0.500000000000     0.584550000000     0.000000000000     0          
Zr8      Zr     0.500000000000     0.415450000000     0.000000000000     0          
Zr9      Zr     0.500000000000     0.000000000000     0.584550000000     0          
Zr10     Zr     0.500000000000     0.500000000000     0.084550000000     0          
Zr11     Zr     0.500000000000     0.000000000000     0.415450000000     0          
Zr12     Zr     0.500000000000     0.500000000000     0.915450000000     0          
Zr13     Zr     0.000000000000     0.500000000000     0.584550000000     0          
Zr14     Zr     0.000000000000     0.500000000000     0.415450000000     0          
Zr15     Zr     0.584550000000     0.500000000000     0.000000000000     0          
Zr16     Zr     0.084550000000     0.500000000000     0.500000000000     0          
Zr17     Zr     0.415450000000     0.500000000000     0.000000000000     0          
Zr18     Zr     0.915450000000     0.500000000000     0.500000000000     0          
Zr19     Zr     0.084550000000     0.000000000000     0.000000000000     0          
Zr20     Zr     0.915450000000     0.000000000000     0.000000000000     0          
Zr21     Zr     0.584550000000     0.000000000000     0.500000000000     0          
Zr22     Zr     0.415450000000     0.000000000000     0.500000000000     0          
Zr23     Zr     0.000000000000     0.000000000000     0.915450000000     0          
Zr24     Zr     0.000000000000     0.000000000000     0.084550000000     0          
O25      O      0.036760000000     0.536760000000     0.536760000000     0          
O26      O      0.036760000000     0.036760000000     0.036760000000     0          
O27      O      0.963240000000     0.463240000000     0.536760000000     0          
O28      O      0.963240000000     0.963240000000     0.036760000000     0          
O29      O      0.963240000000     0.536760000000     0.463240000000     0          
O30      O      0.963240000000     0.036760000000     0.963240000000     0          
O31      O      0.036760000000     0.463240000000     0.463240000000     0          
O32      O      0.036760000000     0.963240000000     0.963240000000     0          
O33      O      0.536760000000     0.463240000000     0.963240000000     0          
O34      O      0.536760000000     0.963240000000     0.463240000000     0          
O35      O      0.536760000000     0.036760000000     0.536760000000     0          
O36      O      0.463240000000     0.963240000000     0.536760000000     0          
O37      O      0.463240000000     0.036760000000     0.463240000000     0          
O38      O      0.463240000000     0.536760000000     0.963240000000     0          
O39      O      0.536760000000     0.536760000000     0.036760000000     0          
O40      O      0.463240000000     0.463240000000     0.036760000000     0          
O41      O      0.536760000000     0.036760000000     0.463240000000     0          
O42      O      0.536760000000     0.536760000000     0.963240000000     0          
O43      O      0.463240000000     0.963240000000     0.463240000000     0          
O44      O      0.963240000000     0.963240000000     0.963240000000     0          
O45      O      0.536760000000     0.963240000000     0.536760000000     0          
O46      O      0.463240000000     0.036760000000     0.536760000000     0          
O47      O      0.963240000000     0.536760000000     0.536760000000     0          
O48      O      0.036760000000     0.536760000000     0.463240000000     0          
O49      O      0.036760000000     0.036760000000     0.963240000000     0          
O50      O      0.963240000000     0.036760000000     0.036760000000     0          
O51      O      0.963240000000     0.463240000000     0.463240000000     0          
O52      O      0.036760000000     0.463240000000     0.536760000000     0          
O53      O      0.036760000000     0.963240000000     0.036760000000     0          
O54      O      0.536760000000     0.463240000000     0.036760000000     0          
O55      O      0.463240000000     0.536760000000     0.036760000000     0          
O56      O      0.463240000000     0.463240000000     0.963240000000     0          
O57      O      0.000000000000     0.607590000000     0.577260000000     0          
C58      C      0.000000000000     0.689150000000     0.635730000000     0          
C59      C      0.000000000000     0.721020000000     0.668160000000     0          
C60      C      0.000000000000     0.751820000000     0.727710000000     0          
O61      O      0.000000000000     0.107590000000     0.077260000000     0          
C62      C      0.000000000000     0.189150000000     0.135730000000     0          
C63      C      0.000000000000     0.221020000000     0.168160000000     0          
O64      O      0.500000000000     0.607590000000     0.077260000000     0          
C65      C      0.500000000000     0.689150000000     0.135730000000     0          
C66      C      0.500000000000     0.721020000000     0.168160000000     0          
O67      O      0.500000000000     0.107590000000     0.577260000000     0          
C68      C      0.500000000000     0.189150000000     0.635730000000     0          
C69      C      0.500000000000     0.221020000000     0.668160000000     0          
C70      C      0.500000000000     0.251820000000     0.727710000000     0          
O71      O      0.000000000000     0.392410000000     0.577260000000     0          
C72      C      0.000000000000     0.310850000000     0.635730000000     0          
C73      C      0.000000000000     0.278980000000     0.668160000000     0          
C74      C      0.000000000000     0.248180000000     0.727710000000     0          
O75      O      0.000000000000     0.892410000000     0.077260000000     0          
C76      C      0.000000000000     0.810850000000     0.135730000000     0          
C77      C      0.000000000000     0.778980000000     0.168160000000     0          
C78      C      0.000000000000     0.748180000000     0.227710000000     0          
O79      O      0.500000000000     0.392410000000     0.077260000000     0          
C80      C      0.500000000000     0.310850000000     0.135730000000     0          
C81      C      0.500000000000     0.278980000000     0.168160000000     0          
C82      C      0.500000000000     0.248180000000     0.227710000000     0          
O83      O      0.500000000000     0.892410000000     0.577260000000     0          
C84      C      0.500000000000     0.810850000000     0.635730000000     0          
C85      C      0.500000000000     0.778980000000     0.668160000000     0          
C86      C      0.500000000000     0.748180000000     0.727710000000     0          
O87      O      0.000000000000     0.607590000000     0.422740000000     0          
C88      C      0.000000000000     0.689150000000     0.364270000000     0          
C89      C      0.000000000000     0.721020000000     0.331840000000     0          
C90      C      0.000000000000     0.751820000000     0.272290000000     0          
O91      O      0.000000000000     0.107590000000     0.922740000000     0          
C92      C      0.000000000000     0.189150000000     0.864270000000     0          
C93      C      0.000000000000     0.221020000000     0.831840000000     0          
C94      C      0.000000000000     0.251820000000     0.772290000000     0          
O95      O      0.500000000000     0.607590000000     0.922740000000     0          
C96      C      0.500000000000     0.689150000000     0.864270000000     0          
C97      C      0.500000000000     0.721020000000     0.831840000000     0          
C98      C      0.500000000000     0.751820000000     0.772290000000     0          
O99      O      0.500000000000     0.107590000000     0.422740000000     0          
C100     C      0.500000000000     0.189150000000     0.364270000000     0          
C101     C      0.500000000000     0.221020000000     0.331840000000     0          
C102     C      0.500000000000     0.251820000000     0.272290000000     0          
O103     O      0.000000000000     0.392410000000     0.422740000000     0          
C104     C      0.000000000000     0.310850000000     0.364270000000     0          
C105     C      0.000000000000     0.278980000000     0.331840000000     0          
O106     O      0.000000000000     0.892410000000     0.922740000000     0          
C107     C      0.000000000000     0.810850000000     0.864270000000     0          
C108     C      0.000000000000     0.778980000000     0.831840000000     0          
C109     C      0.000000000000     0.748180000000     0.772290000000     0          
O110     O      0.500000000000     0.392410000000     0.922740000000     0          
C111     C      0.500000000000     0.310850000000     0.864270000000     0          
C112     C      0.500000000000     0.278980000000     0.831840000000     0          
C113     C      0.500000000000     0.248180000000     0.772290000000     0          
O114     O      0.500000000000     0.892410000000     0.422740000000     0          
C115     C      0.500000000000     0.810850000000     0.364270000000     0          
C116     C      0.500000000000     0.778980000000     0.331840000000     0          
O117     O      0.577260000000     0.000000000000     0.607590000000     0          
C118     C      0.635730000000     0.000000000000     0.689150000000     0          
C119     C      0.668160000000     0.000000000000     0.721020000000     0          
O120     O      0.577260000000     0.500000000000     0.107590000000     0          
C121     C      0.635730000000     0.500000000000     0.189150000000     0          
C122     C      0.668160000000     0.500000000000     0.221020000000     0          
O123     O      0.077260000000     0.000000000000     0.107590000000     0          
C124     C      0.135730000000     0.000000000000     0.189150000000     0          
C125     C      0.168160000000     0.000000000000     0.221020000000     0          
C126     C      0.227710000000     0.000000000000     0.251820000000     0          
O127     O      0.077260000000     0.500000000000     0.607590000000     0          
C128     C      0.135730000000     0.500000000000     0.689150000000     0          
C129     C      0.168160000000     0.500000000000     0.721020000000     0          
O130     O      0.577260000000     0.000000000000     0.392410000000     0          
C131     C      0.635730000000     0.000000000000     0.310850000000     0          
C132     C      0.668160000000     0.000000000000     0.278980000000     0          
O133     O      0.577260000000     0.500000000000     0.892410000000     0          
C134     C      0.635730000000     0.500000000000     0.810850000000     0          
C135     C      0.668160000000     0.500000000000     0.778980000000     0          
O136     O      0.077260000000     0.000000000000     0.892410000000     0          
C137     C      0.135730000000     0.000000000000     0.810850000000     0          
C138     C      0.168160000000     0.000000000000     0.778980000000     0          
C139     C      0.227710000000     0.000000000000     0.748180000000     0          
O140     O      0.077260000000     0.500000000000     0.392410000000     0          
C141     C      0.135730000000     0.500000000000     0.310850000000     0          
C142     C      0.168160000000     0.500000000000     0.278980000000     0          
C143     C      0.227710000000     0.500000000000     0.248180000000     0          
O144     O      0.422740000000     0.000000000000     0.607590000000     0          
C145     C      0.364270000000     0.000000000000     0.689150000000     0          
C146     C      0.331840000000     0.000000000000     0.721020000000     0          
C147     C      0.272290000000     0.000000000000     0.751820000000     0          
O148     O      0.422740000000     0.500000000000     0.107590000000     0          
C149     C      0.364270000000     0.500000000000     0.189150000000     0          
C150     C      0.331840000000     0.500000000000     0.221020000000     0          
C151     C      0.272290000000     0.500000000000     0.251820000000     0          
O152     O      0.922740000000     0.000000000000     0.107590000000     0          
C153     C      0.864270000000     0.000000000000     0.189150000000     0          
C154     C      0.831840000000     0.000000000000     0.221020000000     0          
O155     O      0.922740000000     0.500000000000     0.607590000000     0          
C156     C      0.864270000000     0.500000000000     0.689150000000     0          
C157     C      0.831840000000     0.500000000000     0.721020000000     0          
O158     O      0.422740000000     0.000000000000     0.392410000000     0          
C159     C      0.364270000000     0.000000000000     0.310850000000     0          
C160     C      0.331840000000     0.000000000000     0.278980000000     0          
C161     C      0.272290000000     0.000000000000     0.248180000000     0          
O162     O      0.422740000000     0.500000000000     0.892410000000     0          
C163     C      0.364270000000     0.500000000000     0.810850000000     0          
C164     C      0.331840000000     0.500000000000     0.778980000000     0          
O165     O      0.922740000000     0.000000000000     0.892410000000     0          
C166     C      0.864270000000     0.000000000000     0.810850000000     0          
C167     C      0.831840000000     0.000000000000     0.778980000000     0          
O168     O      0.922740000000     0.500000000000     0.392410000000     0          
C169     C      0.864270000000     0.500000000000     0.310850000000     0          
C170     C      0.831840000000     0.500000000000     0.278980000000     0          
O171     O      0.607590000000     0.577260000000     0.000000000000     0          
C172     C      0.689150000000     0.635730000000     0.000000000000     0          
C173     C      0.721020000000     0.668160000000     0.000000000000     0          
O174     O      0.607590000000     0.077260000000     0.500000000000     0          
C175     C      0.689150000000     0.135730000000     0.500000000000     0          
C176     C      0.721020000000     0.168160000000     0.500000000000     0          
O177     O      0.107590000000     0.577260000000     0.500000000000     0          
C178     C      0.189150000000     0.635730000000     0.500000000000     0          
C179     C      0.221020000000     0.668160000000     0.500000000000     0          
O180     O      0.107590000000     0.077260000000     0.000000000000     0          
C181     C      0.189150000000     0.135730000000     0.000000000000     0          
C182     C      0.221020000000     0.168160000000     0.000000000000     0          
O183     O      0.392410000000     0.577260000000     0.000000000000     0          
C184     C      0.310850000000     0.635730000000     0.000000000000     0          
C185     C      0.278980000000     0.668160000000     0.000000000000     0          
C186     C      0.248180000000     0.727710000000     0.000000000000     0          
O187     O      0.392410000000     0.077260000000     0.500000000000     0          
C188     C      0.310850000000     0.135730000000     0.500000000000     0          
C189     C      0.278980000000     0.168160000000     0.500000000000     0          
O190     O      0.892410000000     0.577260000000     0.500000000000     0          
C191     C      0.810850000000     0.635730000000     0.500000000000     0          
C192     C      0.778980000000     0.668160000000     0.500000000000     0          
O193     O      0.892410000000     0.077260000000     0.000000000000     0          
C194     C      0.810850000000     0.135730000000     0.000000000000     0          
C195     C      0.778980000000     0.168160000000     0.000000000000     0          
C196     C      0.748180000000     0.227710000000     0.000000000000     0          
O197     O      0.607590000000     0.422740000000     0.000000000000     0          
C198     C      0.689150000000     0.364270000000     0.000000000000     0          
C199     C      0.721020000000     0.331840000000     0.000000000000     0          
C200     C      0.751820000000     0.272290000000     0.000000000000     0          
O201     O      0.607590000000     0.922740000000     0.500000000000     0          
C202     C      0.689150000000     0.864270000000     0.500000000000     0          
C203     C      0.721020000000     0.831840000000     0.500000000000     0          
O204     O      0.107590000000     0.422740000000     0.500000000000     0          
C205     C      0.189150000000     0.364270000000     0.500000000000     0          
C206     C      0.221020000000     0.331840000000     0.500000000000     0          
O207     O      0.107590000000     0.922740000000     0.000000000000     0          
C208     C      0.189150000000     0.864270000000     0.000000000000     0          
C209     C      0.221020000000     0.831840000000     0.000000000000     0          
C210     C      0.251820000000     0.772290000000     0.000000000000     0          
O211     O      0.392410000000     0.422740000000     0.000000000000     0          
C212     C      0.310850000000     0.364270000000     0.000000000000     0          
C213     C      0.278980000000     0.331840000000     0.000000000000     0          
O214     O      0.392410000000     0.922740000000     0.500000000000     0          
C215     C      0.310850000000     0.864270000000     0.500000000000     0          
C216     C      0.278980000000     0.831840000000     0.500000000000     0          
O217     O      0.892410000000     0.422740000000     0.500000000000     0          
C218     C      0.810850000000     0.364270000000     0.500000000000     0          
C219     C      0.778980000000     0.331840000000     0.500000000000     0          
O220     O      0.892410000000     0.922740000000     0.000000000000     0          
C221     C      0.810850000000     0.864270000000     0.000000000000     0          
C222     C      0.778980000000     0.831840000000     0.000000000000     0          
O223     O      0.607590000000     0.000000000000     0.422740000000     0          
C224     C      0.689150000000     0.000000000000     0.364270000000     0          
C225     C      0.721020000000     0.000000000000     0.331840000000     0          
C226     C      0.751820000000     0.000000000000     0.272290000000     0          
O227     O      0.607590000000     0.500000000000     0.922740000000     0          
C228     C      0.689150000000     0.500000000000     0.864270000000     0          
C229     C      0.721020000000     0.500000000000     0.831840000000     0          
C230     C      0.751820000000     0.500000000000     0.772290000000     0          
O231     O      0.107590000000     0.000000000000     0.922740000000     0          
C232     C      0.189150000000     0.000000000000     0.864270000000     0          
C233     C      0.221020000000     0.000000000000     0.831840000000     0          
O234     O      0.107590000000     0.500000000000     0.422740000000     0          
C235     C      0.189150000000     0.500000000000     0.364270000000     0          
C236     C      0.221020000000     0.500000000000     0.331840000000     0          
O237     O      0.392410000000     0.000000000000     0.422740000000     0          
C238     C      0.310850000000     0.000000000000     0.364270000000     0          
C239     C      0.278980000000     0.000000000000     0.331840000000     0          
O240     O      0.392410000000     0.500000000000     0.922740000000     0          
C241     C      0.310850000000     0.500000000000     0.864270000000     0          
C242     C      0.278980000000     0.500000000000     0.831840000000     0          
C243     C      0.248180000000     0.500000000000     0.772290000000     0          
O244     O      0.892410000000     0.000000000000     0.922740000000     0          
C245     C      0.810850000000     0.000000000000     0.864270000000     0          
C246     C      0.778980000000     0.000000000000     0.831840000000     0          
C247     C      0.748180000000     0.000000000000     0.772290000000     0          
O248     O      0.892410000000     0.500000000000     0.422740000000     0          
C249     C      0.810850000000     0.500000000000     0.364270000000     0          
C250     C      0.778980000000     0.500000000000     0.331840000000     0          
C251     C      0.748180000000     0.500000000000     0.272290000000     0          
O252     O      0.607590000000     0.000000000000     0.577260000000     0          
C253     C      0.689150000000     0.000000000000     0.635730000000     0          
C254     C      0.721020000000     0.000000000000     0.668160000000     0          
C255     C      0.751820000000     0.000000000000     0.727710000000     0          
O256     O      0.607590000000     0.500000000000     0.077260000000     0          
C257     C      0.689150000000     0.500000000000     0.135730000000     0          
C258     C      0.721020000000     0.500000000000     0.168160000000     0          
C259     C      0.751820000000     0.500000000000     0.227710000000     0          
O260     O      0.107590000000     0.000000000000     0.077260000000     0          
C261     C      0.189150000000     0.000000000000     0.135730000000     0          
C262     C      0.221020000000     0.000000000000     0.168160000000     0          
O263     O      0.107590000000     0.500000000000     0.577260000000     0          
C264     C      0.189150000000     0.500000000000     0.635730000000     0          
C265     C      0.221020000000     0.500000000000     0.668160000000     0          
C266     C      0.251820000000     0.500000000000     0.727710000000     0          
O267     O      0.392410000000     0.000000000000     0.577260000000     0          
C268     C      0.310850000000     0.000000000000     0.635730000000     0          
C269     C      0.278980000000     0.000000000000     0.668160000000     0          
O270     O      0.392410000000     0.500000000000     0.077260000000     0          
C271     C      0.310850000000     0.500000000000     0.135730000000     0          
C272     C      0.278980000000     0.500000000000     0.168160000000     0          
O273     O      0.892410000000     0.000000000000     0.077260000000     0          
C274     C      0.810850000000     0.000000000000     0.135730000000     0          
C275     C      0.778980000000     0.000000000000     0.168160000000     0          
C276     C      0.748180000000     0.000000000000     0.227710000000     0          
O277     O      0.892410000000     0.500000000000     0.577260000000     0          
C278     C      0.810850000000     0.500000000000     0.635730000000     0          
C279     C      0.778980000000     0.500000000000     0.668160000000     0          
C280     C      0.748180000000     0.500000000000     0.727710000000     0          
O281     O      0.000000000000     0.577260000000     0.392410000000     0          
C282     C      0.000000000000     0.635730000000     0.310850000000     0          
C283     C      0.000000000000     0.668160000000     0.278980000000     0          
O284     O      0.000000000000     0.077260000000     0.892410000000     0          
C285     C      0.000000000000     0.135730000000     0.810850000000     0          
C286     C      0.000000000000     0.168160000000     0.778980000000     0          
O287     O      0.500000000000     0.577260000000     0.892410000000     0          
C288     C      0.500000000000     0.635730000000     0.810850000000     0          
C289     C      0.500000000000     0.668160000000     0.778980000000     0          
O290     O      0.500000000000     0.077260000000     0.392410000000     0          
C291     C      0.500000000000     0.135730000000     0.310850000000     0          
C292     C      0.500000000000     0.168160000000     0.278980000000     0          
O293     O      0.000000000000     0.577260000000     0.607590000000     0          
C294     C      0.000000000000     0.635730000000     0.689150000000     0          
C295     C      0.000000000000     0.668160000000     0.721020000000     0          
O296     O      0.000000000000     0.077260000000     0.107590000000     0          
C297     C      0.000000000000     0.135730000000     0.189150000000     0          
C298     C      0.000000000000     0.168160000000     0.221020000000     0          
C299     C      0.000000000000     0.227710000000     0.251820000000     0          
O300     O      0.500000000000     0.577260000000     0.107590000000     0          
C301     C      0.500000000000     0.635730000000     0.189150000000     0          
C302     C      0.500000000000     0.668160000000     0.221020000000     0          
C303     C      0.500000000000     0.727710000000     0.251820000000     0          
O304     O      0.500000000000     0.077260000000     0.607590000000     0          
C305     C      0.500000000000     0.135730000000     0.689150000000     0          
C306     C      0.500000000000     0.168160000000     0.721020000000     0          
O307     O      0.000000000000     0.422740000000     0.392410000000     0          
C308     C      0.000000000000     0.364270000000     0.310850000000     0          
C309     C      0.000000000000     0.331840000000     0.278980000000     0          
C310     C      0.000000000000     0.272290000000     0.248180000000     0          
O311     O      0.000000000000     0.922740000000     0.892410000000     0          
C312     C      0.000000000000     0.864270000000     0.810850000000     0          
C313     C      0.000000000000     0.831840000000     0.778980000000     0          
O314     O      0.500000000000     0.422740000000     0.892410000000     0          
C315     C      0.500000000000     0.364270000000     0.810850000000     0          
C316     C      0.500000000000     0.331840000000     0.778980000000     0          
O317     O      0.500000000000     0.922740000000     0.392410000000     0          
C318     C      0.500000000000     0.864270000000     0.310850000000     0          
C319     C      0.500000000000     0.831840000000     0.278980000000     0          
C320     C      0.500000000000     0.772290000000     0.248180000000     0          
O321     O      0.000000000000     0.422740000000     0.607590000000     0          
C322     C      0.000000000000     0.364270000000     0.689150000000     0          
C323     C      0.000000000000     0.331840000000     0.721020000000     0          
O324     O      0.000000000000     0.922740000000     0.107590000000     0          
C325     C      0.000000000000     0.864270000000     0.189150000000     0          
C326     C      0.000000000000     0.831840000000     0.221020000000     0          
O327     O      0.500000000000     0.422740000000     0.107590000000     0          
C328     C      0.500000000000     0.364270000000     0.189150000000     0          
C329     C      0.500000000000     0.331840000000     0.221020000000     0          
O330     O      0.500000000000     0.922740000000     0.607590000000     0          
C331     C      0.500000000000     0.864270000000     0.689150000000     0          
C332     C      0.500000000000     0.831840000000     0.721020000000     0          
O333     O      0.577260000000     0.607590000000     0.000000000000     0          
C334     C      0.635730000000     0.689150000000     0.000000000000     0          
C335     C      0.668160000000     0.721020000000     0.000000000000     0          
C336     C      0.727710000000     0.751820000000     0.000000000000     0          
O337     O      0.577260000000     0.107590000000     0.500000000000     0          
C338     C      0.635730000000     0.189150000000     0.500000000000     0          
C339     C      0.668160000000     0.221020000000     0.500000000000     0          
C340     C      0.727710000000     0.251820000000     0.500000000000     0          
O341     O      0.077260000000     0.607590000000     0.500000000000     0          
C342     C      0.135730000000     0.689150000000     0.500000000000     0          
C343     C      0.168160000000     0.721020000000     0.500000000000     0          
C344     C      0.227710000000     0.751820000000     0.500000000000     0          
O345     O      0.077260000000     0.107590000000     0.000000000000     0          
C346     C      0.135730000000     0.189150000000     0.000000000000     0          
C347     C      0.168160000000     0.221020000000     0.000000000000     0          
C348     C      0.227710000000     0.251820000000     0.000000000000     0          
O349     O      0.577260000000     0.392410000000     0.000000000000     0          
C350     C      0.635730000000     0.310850000000     0.000000000000     0          
C351     C      0.668160000000     0.278980000000     0.000000000000     0          
O352     O      0.577260000000     0.892410000000     0.500000000000     0          
C353     C      0.635730000000     0.810850000000     0.500000000000     0          
C354     C      0.668160000000     0.778980000000     0.500000000000     0          
C355     C      0.727710000000     0.748180000000     0.500000000000     0          
O356     O      0.077260000000     0.392410000000     0.500000000000     0          
C357     C      0.135730000000     0.310850000000     0.500000000000     0          
C358     C      0.168160000000     0.278980000000     0.500000000000     0          
C359     C      0.227710000000     0.248180000000     0.500000000000     0          
O360     O      0.077260000000     0.892410000000     0.000000000000     0          
C361     C      0.135730000000     0.810850000000     0.000000000000     0          
C362     C      0.168160000000     0.778980000000     0.000000000000     0          
O363     O      0.422740000000     0.607590000000     0.000000000000     0          
C364     C      0.364270000000     0.689150000000     0.000000000000     0          
C365     C      0.331840000000     0.721020000000     0.000000000000     0          
O366     O      0.422740000000     0.107590000000     0.500000000000     0          
C367     C      0.364270000000     0.189150000000     0.500000000000     0          
C368     C      0.331840000000     0.221020000000     0.500000000000     0          
C369     C      0.272290000000     0.251820000000     0.500000000000     0          
O370     O      0.922740000000     0.607590000000     0.500000000000     0          
C371     C      0.864270000000     0.689150000000     0.500000000000     0          
C372     C      0.831840000000     0.721020000000     0.500000000000     0          
C373     C      0.772290000000     0.751820000000     0.500000000000     0          
O374     O      0.922740000000     0.107590000000     0.000000000000     0          
C375     C      0.864270000000     0.189150000000     0.000000000000     0          
C376     C      0.831840000000     0.221020000000     0.000000000000     0          
O377     O      0.422740000000     0.392410000000     0.000000000000     0          
C378     C      0.364270000000     0.310850000000     0.000000000000     0          
C379     C      0.331840000000     0.278980000000     0.000000000000     0          
C380     C      0.272290000000     0.248180000000     0.000000000000     0          
O381     O      0.422740000000     0.892410000000     0.500000000000     0          
C382     C      0.364270000000     0.810850000000     0.500000000000     0          
C383     C      0.331840000000     0.778980000000     0.500000000000     0          
C384     C      0.272290000000     0.748180000000     0.500000000000     0          
O385     O      0.922740000000     0.392410000000     0.500000000000     0          
C386     C      0.864270000000     0.310850000000     0.500000000000     0          
C387     C      0.831840000000     0.278980000000     0.500000000000     0          
C388     C      0.772290000000     0.248180000000     0.500000000000     0          
O389     O      0.922740000000     0.892410000000     0.000000000000     0          
C390     C      0.864270000000     0.810850000000     0.000000000000     0          
C391     C      0.831840000000     0.778980000000     0.000000000000     0          
C392     C      0.772290000000     0.748180000000     0.000000000000     0          
C393     C      0.000000000000     0.606110000000     0.606110000000     0          
C394     C      0.000000000000     0.647220000000     0.647220000000     0          
C395     C      0.000000000000     0.710240000000     0.710240000000     0          
C396     C      0.000000000000     0.106110000000     0.106110000000     0          
C397     C      0.000000000000     0.147220000000     0.147220000000     0          
C398     C      0.000000000000     0.210240000000     0.210240000000     0          
C399     C      0.500000000000     0.606110000000     0.106110000000     0          
C400     C      0.500000000000     0.647220000000     0.147220000000     0          
C401     C      0.500000000000     0.710240000000     0.210240000000     0          
C402     C      0.500000000000     0.106110000000     0.606110000000     0          
C403     C      0.500000000000     0.147220000000     0.647220000000     0          
C404     C      0.500000000000     0.210240000000     0.710240000000     0          
C405     C      0.000000000000     0.393890000000     0.606110000000     0          
C406     C      0.000000000000     0.352780000000     0.647220000000     0          
C407     C      0.000000000000     0.289760000000     0.710240000000     0          
C408     C      0.000000000000     0.893890000000     0.106110000000     0          
C409     C      0.000000000000     0.852780000000     0.147220000000     0          
C410     C      0.000000000000     0.789760000000     0.210240000000     0          
C411     C      0.500000000000     0.393890000000     0.106110000000     0          
C412     C      0.500000000000     0.352780000000     0.147220000000     0          
C413     C      0.500000000000     0.289760000000     0.210240000000     0          
C414     C      0.500000000000     0.893890000000     0.606110000000     0          
C415     C      0.500000000000     0.852780000000     0.647220000000     0          
C416     C      0.500000000000     0.789760000000     0.710240000000     0          
C417     C      0.000000000000     0.606110000000     0.393890000000     0          
C418     C      0.000000000000     0.647220000000     0.352780000000     0          
C419     C      0.000000000000     0.710240000000     0.289760000000     0          
C420     C      0.000000000000     0.106110000000     0.893890000000     0          
C421     C      0.000000000000     0.147220000000     0.852780000000     0          
C422     C      0.000000000000     0.210240000000     0.789760000000     0          
C423     C      0.500000000000     0.606110000000     0.893890000000     0          
C424     C      0.500000000000     0.647220000000     0.852780000000     0          
C425     C      0.500000000000     0.710240000000     0.789760000000     0          
C426     C      0.500000000000     0.106110000000     0.393890000000     0          
C427     C      0.500000000000     0.147220000000     0.352780000000     0          
C428     C      0.500000000000     0.210240000000     0.289760000000     0          
C429     C      0.000000000000     0.393890000000     0.393890000000     0          
C430     C      0.000000000000     0.352780000000     0.352780000000     0          
C431     C      0.000000000000     0.289760000000     0.289760000000     0          
C432     C      0.000000000000     0.893890000000     0.893890000000     0          
C433     C      0.000000000000     0.852780000000     0.852780000000     0          
C434     C      0.000000000000     0.789760000000     0.789760000000     0          
C435     C      0.500000000000     0.393890000000     0.893890000000     0          
C436     C      0.500000000000     0.352780000000     0.852780000000     0          
C437     C      0.500000000000     0.289760000000     0.789760000000     0          
C438     C      0.500000000000     0.893890000000     0.393890000000     0          
C439     C      0.500000000000     0.852780000000     0.352780000000     0          
C440     C      0.500000000000     0.789760000000     0.289760000000     0          
C441     C      0.606110000000     0.000000000000     0.606110000000     0          
C442     C      0.647220000000     0.000000000000     0.647220000000     0          
C443     C      0.710240000000     0.000000000000     0.710240000000     0          
C444     C      0.606110000000     0.500000000000     0.106110000000     0          
C445     C      0.647220000000     0.500000000000     0.147220000000     0          
C446     C      0.710240000000     0.500000000000     0.210240000000     0          
C447     C      0.106110000000     0.000000000000     0.106110000000     0          
C448     C      0.147220000000     0.000000000000     0.147220000000     0          
C449     C      0.210240000000     0.000000000000     0.210240000000     0          
C450     C      0.106110000000     0.500000000000     0.606110000000     0          
C451     C      0.147220000000     0.500000000000     0.647220000000     0          
C452     C      0.210240000000     0.500000000000     0.710240000000     0          
C453     C      0.606110000000     0.000000000000     0.393890000000     0          
C454     C      0.647220000000     0.000000000000     0.352780000000     0          
C455     C      0.710240000000     0.000000000000     0.289760000000     0          
C456     C      0.606110000000     0.500000000000     0.893890000000     0          
C457     C      0.647220000000     0.500000000000     0.852780000000     0          
C458     C      0.710240000000     0.500000000000     0.789760000000     0          
C459     C      0.106110000000     0.000000000000     0.893890000000     0          
C460     C      0.147220000000     0.000000000000     0.852780000000     0          
C461     C      0.210240000000     0.000000000000     0.789760000000     0          
C462     C      0.106110000000     0.500000000000     0.393890000000     0          
C463     C      0.147220000000     0.500000000000     0.352780000000     0          
C464     C      0.210240000000     0.500000000000     0.289760000000     0          
C465     C      0.393890000000     0.000000000000     0.606110000000     0          
C466     C      0.352780000000     0.000000000000     0.647220000000     0          
C467     C      0.289760000000     0.000000000000     0.710240000000     0          
C468     C      0.393890000000     0.500000000000     0.106110000000     0          
C469     C      0.352780000000     0.500000000000     0.147220000000     0          
C470     C      0.289760000000     0.500000000000     0.210240000000     0          
C471     C      0.893890000000     0.000000000000     0.106110000000     0          
C472     C      0.852780000000     0.000000000000     0.147220000000     0          
C473     C      0.789760000000     0.000000000000     0.210240000000     0          
C474     C      0.893890000000     0.500000000000     0.606110000000     0          
C475     C      0.852780000000     0.500000000000     0.647220000000     0          
C476     C      0.789760000000     0.500000000000     0.710240000000     0          
C477     C      0.393890000000     0.000000000000     0.393890000000     0          
C478     C      0.352780000000     0.000000000000     0.352780000000     0          
C479     C      0.289760000000     0.000000000000     0.289760000000     0          
C480     C      0.393890000000     0.500000000000     0.893890000000     0          
C481     C      0.352780000000     0.500000000000     0.852780000000     0          
C482     C      0.289760000000     0.500000000000     0.789760000000     0          
C483     C      0.893890000000     0.000000000000     0.893890000000     0          
C484     C      0.852780000000     0.000000000000     0.852780000000     0          
C485     C      0.789760000000     0.000000000000     0.789760000000     0          
C486     C      0.893890000000     0.500000000000     0.393890000000     0          
C487     C      0.852780000000     0.500000000000     0.352780000000     0          
C488     C      0.789760000000     0.500000000000     0.289760000000     0          
C489     C      0.606110000000     0.606110000000     0.000000000000     0          
C490     C      0.647220000000     0.647220000000     0.000000000000     0          
C491     C      0.710240000000     0.710240000000     0.000000000000     0          
C492     C      0.606110000000     0.106110000000     0.500000000000     0          
C493     C      0.647220000000     0.147220000000     0.500000000000     0          
C494     C      0.710240000000     0.210240000000     0.500000000000     0          
C495     C      0.106110000000     0.606110000000     0.500000000000     0          
C496     C      0.147220000000     0.647220000000     0.500000000000     0          
C497     C      0.210240000000     0.710240000000     0.500000000000     0          
C498     C      0.106110000000     0.106110000000     0.000000000000     0          
C499     C      0.147220000000     0.147220000000     0.000000000000     0          
C500     C      0.210240000000     0.210240000000     0.000000000000     0          
C501     C      0.393890000000     0.606110000000     0.000000000000     0          
C502     C      0.352780000000     0.647220000000     0.000000000000     0          
C503     C      0.289760000000     0.710240000000     0.000000000000     0          
C504     C      0.393890000000     0.106110000000     0.500000000000     0          
C505     C      0.352780000000     0.147220000000     0.500000000000     0          
C506     C      0.289760000000     0.210240000000     0.500000000000     0          
C507     C      0.893890000000     0.606110000000     0.500000000000     0          
C508     C      0.852780000000     0.647220000000     0.500000000000     0          
C509     C      0.789760000000     0.710240000000     0.500000000000     0          
C510     C      0.893890000000     0.106110000000     0.000000000000     0          
C511     C      0.852780000000     0.147220000000     0.000000000000     0          
C512     C      0.789760000000     0.210240000000     0.000000000000     0          
C513     C      0.606110000000     0.393890000000     0.000000000000     0          
C514     C      0.647220000000     0.352780000000     0.000000000000     0          
C515     C      0.710240000000     0.289760000000     0.000000000000     0          
C516     C      0.606110000000     0.893890000000     0.500000000000     0          
C517     C      0.647220000000     0.852780000000     0.500000000000     0          
C518     C      0.710240000000     0.789760000000     0.500000000000     0          
C519     C      0.106110000000     0.393890000000     0.500000000000     0          
C520     C      0.147220000000     0.352780000000     0.500000000000     0          
C521     C      0.210240000000     0.289760000000     0.500000000000     0          
C522     C      0.106110000000     0.893890000000     0.000000000000     0          
C523     C      0.147220000000     0.852780000000     0.000000000000     0          
C524     C      0.210240000000     0.789760000000     0.000000000000     0          
C525     C      0.393890000000     0.393890000000     0.000000000000     0          
C526     C      0.352780000000     0.352780000000     0.000000000000     0          
C527     C      0.289760000000     0.289760000000     0.000000000000     0          
C528     C      0.393890000000     0.893890000000     0.500000000000     0          
C529     C      0.352780000000     0.852780000000     0.500000000000     0          
C530     C      0.289760000000     0.789760000000     0.500000000000     0          
C531     C      0.893890000000     0.393890000000     0.500000000000     0          
C532     C      0.852780000000     0.352780000000     0.500000000000     0          
C533     C      0.789760000000     0.289760000000     0.500000000000     0          
C534     C      0.893890000000     0.893890000000     0.000000000000     0          
C535     C      0.852780000000     0.852780000000     0.000000000000     0          
C536     C      0.789760000000     0.789760000000     0.000000000000     0          
H537     H      0.000000000000     0.699300000000     0.599110000000     0          
H538     H      0.000000000000     0.757810000000     0.658640000000     0          
H539     H      0.000000000000     0.782090000000     0.704730000000     0          
H540     H      0.000000000000     0.199300000000     0.099110000000     0          
H541     H      0.000000000000     0.257810000000     0.158640000000     0          
H542     H      0.500000000000     0.699300000000     0.099110000000     0          
H543     H      0.500000000000     0.757810000000     0.158640000000     0          
H544     H      0.500000000000     0.199300000000     0.599110000000     0          
H545     H      0.500000000000     0.257810000000     0.658640000000     0          
H546     H      0.500000000000     0.282090000000     0.704730000000     0          
H547     H      0.000000000000     0.300700000000     0.599110000000     0          
H548     H      0.000000000000     0.242190000000     0.658640000000     0          
H549     H      0.000000000000     0.217910000000     0.704730000000     0          
H550     H      0.000000000000     0.800700000000     0.099110000000     0          
H551     H      0.000000000000     0.742190000000     0.158640000000     0          
H552     H      0.000000000000     0.717910000000     0.204730000000     0          
H553     H      0.500000000000     0.300700000000     0.099110000000     0          
H554     H      0.500000000000     0.242190000000     0.158640000000     0          
H555     H      0.500000000000     0.217910000000     0.204730000000     0          
H556     H      0.500000000000     0.800700000000     0.599110000000     0          
H557     H      0.500000000000     0.742190000000     0.658640000000     0          
H558     H      0.500000000000     0.717910000000     0.704730000000     0          
H559     H      0.000000000000     0.699300000000     0.400890000000     0          
H560     H      0.000000000000     0.757810000000     0.341360000000     0          
H561     H      0.000000000000     0.782090000000     0.295270000000     0          
H562     H      0.000000000000     0.199300000000     0.900890000000     0          
H563     H      0.000000000000     0.257810000000     0.841360000000     0          
H564     H      0.000000000000     0.282090000000     0.795270000000     0          
H565     H      0.500000000000     0.699300000000     0.900890000000     0          
H566     H      0.500000000000     0.757810000000     0.841360000000     0          
H567     H      0.500000000000     0.782090000000     0.795270000000     0          
H568     H      0.500000000000     0.199300000000     0.400890000000     0          
H569     H      0.500000000000     0.257810000000     0.341360000000     0          
H570     H      0.500000000000     0.282090000000     0.295270000000     0          
H571     H      0.000000000000     0.300700000000     0.400890000000     0          
H572     H      0.000000000000     0.242190000000     0.341360000000     0          
H573     H      0.000000000000     0.800700000000     0.900890000000     0          
H574     H      0.000000000000     0.742190000000     0.841360000000     0          
H575     H      0.000000000000     0.717910000000     0.795270000000     0          
H576     H      0.500000000000     0.300700000000     0.900890000000     0          
H577     H      0.500000000000     0.242190000000     0.841360000000     0          
H578     H      0.500000000000     0.217910000000     0.795270000000     0          
H579     H      0.500000000000     0.800700000000     0.400890000000     0          
H580     H      0.500000000000     0.742190000000     0.341360000000     0          
H581     H      0.599110000000     0.000000000000     0.699300000000     0          
H582     H      0.658640000000     0.000000000000     0.757810000000     0          
H583     H      0.599110000000     0.500000000000     0.199300000000     0          
H584     H      0.658640000000     0.500000000000     0.257810000000     0          
H585     H      0.099110000000     0.000000000000     0.199300000000     0          
H586     H      0.158640000000     0.000000000000     0.257810000000     0          
H587     H      0.204730000000     0.000000000000     0.282090000000     0          
H588     H      0.099110000000     0.500000000000     0.699300000000     0          
H589     H      0.158640000000     0.500000000000     0.757810000000     0          
H590     H      0.599110000000     0.000000000000     0.300700000000     0          
H591     H      0.658640000000     0.000000000000     0.242190000000     0          
H592     H      0.599110000000     0.500000000000     0.800700000000     0          
H593     H      0.658640000000     0.500000000000     0.742190000000     0          
H594     H      0.099110000000     0.000000000000     0.800700000000     0          
H595     H      0.158640000000     0.000000000000     0.742190000000     0          
H596     H      0.204730000000     0.000000000000     0.717910000000     0          
H597     H      0.099110000000     0.500000000000     0.300700000000     0          
H598     H      0.158640000000     0.500000000000     0.242190000000     0          
H599     H      0.204730000000     0.500000000000     0.217910000000     0          
H600     H      0.400890000000     0.000000000000     0.699300000000     0          
H601     H      0.341360000000     0.000000000000     0.757810000000     0          
H602     H      0.295270000000     0.000000000000     0.782090000000     0          
H603     H      0.400890000000     0.500000000000     0.199300000000     0          
H604     H      0.341360000000     0.500000000000     0.257810000000     0          
H605     H      0.295270000000     0.500000000000     0.282090000000     0          
H606     H      0.900890000000     0.000000000000     0.199300000000     0          
H607     H      0.841360000000     0.000000000000     0.257810000000     0          
H608     H      0.900890000000     0.500000000000     0.699300000000     0          
H609     H      0.841360000000     0.500000000000     0.757810000000     0          
H610     H      0.400890000000     0.000000000000     0.300700000000     0          
H611     H      0.341360000000     0.000000000000     0.242190000000     0          
H612     H      0.295270000000     0.000000000000     0.217910000000     0          
H613     H      0.400890000000     0.500000000000     0.800700000000     0          
H614     H      0.341360000000     0.500000000000     0.742190000000     0          
H615     H      0.900890000000     0.000000000000     0.800700000000     0          
H616     H      0.841360000000     0.000000000000     0.742190000000     0          
H617     H      0.900890000000     0.500000000000     0.300700000000     0          
H618     H      0.841360000000     0.500000000000     0.242190000000     0          
H619     H      0.699300000000     0.599110000000     0.000000000000     0          
H620     H      0.757810000000     0.658640000000     0.000000000000     0          
H621     H      0.699300000000     0.099110000000     0.500000000000     0          
H622     H      0.757810000000     0.158640000000     0.500000000000     0          
H623     H      0.199300000000     0.599110000000     0.500000000000     0          
H624     H      0.257810000000     0.658640000000     0.500000000000     0          
H625     H      0.199300000000     0.099110000000     0.000000000000     0          
H626     H      0.257810000000     0.158640000000     0.000000000000     0          
H627     H      0.300700000000     0.599110000000     0.000000000000     0          
H628     H      0.242190000000     0.658640000000     0.000000000000     0          
H629     H      0.217910000000     0.704730000000     0.000000000000     0          
H630     H      0.300700000000     0.099110000000     0.500000000000     0          
H631     H      0.242190000000     0.158640000000     0.500000000000     0          
H632     H      0.800700000000     0.599110000000     0.500000000000     0          
H633     H      0.742190000000     0.658640000000     0.500000000000     0          
H634     H      0.800700000000     0.099110000000     0.000000000000     0          
H635     H      0.742190000000     0.158640000000     0.000000000000     0          
H636     H      0.717910000000     0.204730000000     0.000000000000     0          
H637     H      0.699300000000     0.400890000000     0.000000000000     0          
H638     H      0.757810000000     0.341360000000     0.000000000000     0          
H639     H      0.782090000000     0.295270000000     0.000000000000     0          
H640     H      0.699300000000     0.900890000000     0.500000000000     0          
H641     H      0.757810000000     0.841360000000     0.500000000000     0          
H642     H      0.199300000000     0.400890000000     0.500000000000     0          
H643     H      0.257810000000     0.341360000000     0.500000000000     0          
H644     H      0.199300000000     0.900890000000     0.000000000000     0          
H645     H      0.257810000000     0.841360000000     0.000000000000     0          
H646     H      0.282090000000     0.795270000000     0.000000000000     0          
H647     H      0.300700000000     0.400890000000     0.000000000000     0          
H648     H      0.242190000000     0.341360000000     0.000000000000     0          
H649     H      0.300700000000     0.900890000000     0.500000000000     0          
H650     H      0.242190000000     0.841360000000     0.500000000000     0          
H651     H      0.800700000000     0.400890000000     0.500000000000     0          
H652     H      0.742190000000     0.341360000000     0.500000000000     0          
H653     H      0.800700000000     0.900890000000     0.000000000000     0          
H654     H      0.742190000000     0.841360000000     0.000000000000     0          
H655     H      0.699300000000     0.000000000000     0.400890000000     0          
H656     H      0.757810000000     0.000000000000     0.341360000000     0          
H657     H      0.782090000000     0.000000000000     0.295270000000     0          
H658     H      0.699300000000     0.500000000000     0.900890000000     0          
H659     H      0.757810000000     0.500000000000     0.841360000000     0          
H660     H      0.782090000000     0.500000000000     0.795270000000     0          
H661     H      0.199300000000     0.000000000000     0.900890000000     0          
H662     H      0.257810000000     0.000000000000     0.841360000000     0          
H663     H      0.199300000000     0.500000000000     0.400890000000     0          
H664     H      0.257810000000     0.500000000000     0.341360000000     0          
H665     H      0.300700000000     0.000000000000     0.400890000000     0          
H666     H      0.242190000000     0.000000000000     0.341360000000     0          
H667     H      0.300700000000     0.500000000000     0.900890000000     0          
H668     H      0.242190000000     0.500000000000     0.841360000000     0          
H669     H      0.217910000000     0.500000000000     0.795270000000     0          
H670     H      0.800700000000     0.000000000000     0.900890000000     0          
H671     H      0.742190000000     0.000000000000     0.841360000000     0          
H672     H      0.717910000000     0.000000000000     0.795270000000     0          
H673     H      0.800700000000     0.500000000000     0.400890000000     0          
H674     H      0.742190000000     0.500000000000     0.341360000000     0          
H675     H      0.717910000000     0.500000000000     0.295270000000     0          
H676     H      0.699300000000     0.000000000000     0.599110000000     0          
H677     H      0.757810000000     0.000000000000     0.658640000000     0          
H678     H      0.782090000000     0.000000000000     0.704730000000     0          
H679     H      0.699300000000     0.500000000000     0.099110000000     0          
H680     H      0.757810000000     0.500000000000     0.158640000000     0          
H681     H      0.782090000000     0.500000000000     0.204730000000     0          
H682     H      0.199300000000     0.000000000000     0.099110000000     0          
H683     H      0.257810000000     0.000000000000     0.158640000000     0          
H684     H      0.199300000000     0.500000000000     0.599110000000     0          
H685     H      0.257810000000     0.500000000000     0.658640000000     0          
H686     H      0.282090000000     0.500000000000     0.704730000000     0          
H687     H      0.300700000000     0.000000000000     0.599110000000     0          
H688     H      0.242190000000     0.000000000000     0.658640000000     0          
H689     H      0.300700000000     0.500000000000     0.099110000000     0          
H690     H      0.242190000000     0.500000000000     0.158640000000     0          
H691     H      0.800700000000     0.000000000000     0.099110000000     0          
H692     H      0.742190000000     0.000000000000     0.158640000000     0          
H693     H      0.717910000000     0.000000000000     0.204730000000     0          
H694     H      0.800700000000     0.500000000000     0.599110000000     0          
H695     H      0.742190000000     0.500000000000     0.658640000000     0          
H696     H      0.717910000000     0.500000000000     0.704730000000     0          
H697     H      0.000000000000     0.599110000000     0.300700000000     0          
H698     H      0.000000000000     0.658640000000     0.242190000000     0          
H699     H      0.000000000000     0.099110000000     0.800700000000     0          
H700     H      0.000000000000     0.158640000000     0.742190000000     0          
H701     H      0.500000000000     0.599110000000     0.800700000000     0          
H702     H      0.500000000000     0.658640000000     0.742190000000     0          
H703     H      0.500000000000     0.099110000000     0.300700000000     0          
H704     H      0.500000000000     0.158640000000     0.242190000000     0          
H705     H      0.000000000000     0.599110000000     0.699300000000     0          
H706     H      0.000000000000     0.658640000000     0.757810000000     0          
H707     H      0.000000000000     0.099110000000     0.199300000000     0          
H708     H      0.000000000000     0.158640000000     0.257810000000     0          
H709     H      0.000000000000     0.204730000000     0.282090000000     0          
H710     H      0.500000000000     0.599110000000     0.199300000000     0          
H711     H      0.500000000000     0.658640000000     0.257810000000     0          
H712     H      0.500000000000     0.704730000000     0.282090000000     0          
H713     H      0.500000000000     0.099110000000     0.699300000000     0          
H714     H      0.500000000000     0.158640000000     0.757810000000     0          
H715     H      0.000000000000     0.400890000000     0.300700000000     0          
H716     H      0.000000000000     0.341360000000     0.242190000000     0          
H717     H      0.000000000000     0.295270000000     0.217910000000     0          
H718     H      0.000000000000     0.900890000000     0.800700000000     0          
H719     H      0.000000000000     0.841360000000     0.742190000000     0          
H720     H      0.500000000000     0.400890000000     0.800700000000     0          
H721     H      0.500000000000     0.341360000000     0.742190000000     0          
H722     H      0.500000000000     0.900890000000     0.300700000000     0          
H723     H      0.500000000000     0.841360000000     0.242190000000     0          
H724     H      0.500000000000     0.795270000000     0.217910000000     0          
H725     H      0.000000000000     0.400890000000     0.699300000000     0          
H726     H      0.000000000000     0.341360000000     0.757810000000     0          
H727     H      0.000000000000     0.900890000000     0.199300000000     0          
H728     H      0.000000000000     0.841360000000     0.257810000000     0          
H729     H      0.500000000000     0.400890000000     0.199300000000     0          
H730     H      0.500000000000     0.341360000000     0.257810000000     0          
H731     H      0.500000000000     0.900890000000     0.699300000000     0          
H732     H      0.500000000000     0.841360000000     0.757810000000     0          
H733     H      0.599110000000     0.699300000000     0.000000000000     0          
H734     H      0.658640000000     0.757810000000     0.000000000000     0          
H735     H      0.704730000000     0.782090000000     0.000000000000     0          
H736     H      0.599110000000     0.199300000000     0.500000000000     0          
H737     H      0.658640000000     0.257810000000     0.500000000000     0          
H738     H      0.704730000000     0.282090000000     0.500000000000     0          
H739     H      0.099110000000     0.699300000000     0.500000000000     0          
H740     H      0.158640000000     0.757810000000     0.500000000000     0          
H741     H      0.204730000000     0.782090000000     0.500000000000     0          
H742     H      0.099110000000     0.199300000000     0.000000000000     0          
H743     H      0.158640000000     0.257810000000     0.000000000000     0          
H744     H      0.204730000000     0.282090000000     0.000000000000     0          
H745     H      0.599110000000     0.300700000000     0.000000000000     0          
H746     H      0.658640000000     0.242190000000     0.000000000000     0          
H747     H      0.599110000000     0.800700000000     0.500000000000     0          
H748     H      0.658640000000     0.742190000000     0.500000000000     0          
H749     H      0.704730000000     0.717910000000     0.500000000000     0          
H750     H      0.099110000000     0.300700000000     0.500000000000     0          
H751     H      0.158640000000     0.242190000000     0.500000000000     0          
H752     H      0.204730000000     0.217910000000     0.500000000000     0          
H753     H      0.099110000000     0.800700000000     0.000000000000     0          
H754     H      0.158640000000     0.742190000000     0.000000000000     0          
H755     H      0.400890000000     0.699300000000     0.000000000000     0          
H756     H      0.341360000000     0.757810000000     0.000000000000     0          
H757     H      0.400890000000     0.199300000000     0.500000000000     0          
H758     H      0.341360000000     0.257810000000     0.500000000000     0          
H759     H      0.295270000000     0.282090000000     0.500000000000     0          
H760     H      0.900890000000     0.699300000000     0.500000000000     0          
H761     H      0.841360000000     0.757810000000     0.500000000000     0          
H762     H      0.795270000000     0.782090000000     0.500000000000     0          
H763     H      0.900890000000     0.199300000000     0.000000000000     0          
H764     H      0.841360000000     0.257810000000     0.000000000000     0          
H765     H      0.400890000000     0.300700000000     0.000000000000     0          
H766     H      0.341360000000     0.242190000000     0.000000000000     0          
H767     H      0.295270000000     0.217910000000     0.000000000000     0          
H768     H      0.400890000000     0.800700000000     0.500000000000     0          
H769     H      0.341360000000     0.742190000000     0.500000000000     0          
H770     H      0.295270000000     0.717910000000     0.500000000000     0          
H771     H      0.900890000000     0.300700000000     0.500000000000     0          
H772     H      0.841360000000     0.242190000000     0.500000000000     0          
H773     H      0.795270000000     0.217910000000     0.500000000000     0          
H774     H      0.900890000000     0.800700000000     0.000000000000     0          
H775     H      0.841360000000     0.742190000000     0.000000000000     0          
H776     H      0.795270000000     0.717910000000     0.000000000000     0          


