data_GATQOK

_audit_creation_method RASPA-1.0
_audit_creation_date 2020-11-2
_audit_author_name 'Rocio Bueno-Perez'

_cell_length_a    38.9025
_cell_length_b    38.9025
_cell_length_c    18.9223
_cell_angle_alpha 90
_cell_angle_beta  90
_cell_angle_gamma 90
_cell_volume      28637.1

_symmetry_cell_setting          triclinic
_symmetry_space_group_name_Hall 'P 1'
_symmetry_space_group_name_H-M  'P 1'
_symmetry_Int_Tables_number     1

_symmetry_equiv_pos_as_xyz 'x,y,z'

loop_
_atom_site_label
_atom_site_type_symbol
_atom_site_fract_x
_atom_site_fract_y
_atom_site_fract_z
_atom_site_charge
Zr1      Zr     0.263630000000     0.464660000000     0.785950000000     0          
Zr2      Zr     0.189250000000     0.509870000000     0.836370000000     0          
Zr3      Zr     0.235660000000     0.555450000000     0.963690000000     0          
C4       C      0.343800000000     0.452700000000     0.808700000000     0          
C5       C      0.374550000000     0.412900000000     0.725500000000     0          
H6       H      0.353290000000     0.406480000000     0.707260000000     0          
C7       C      0.376400000000     0.437100000000     0.779300000000     0          
C8       C      0.408170000000     0.446700000000     0.806500000000     0          
H9       H      0.409410000000     0.462930000000     0.842580000000     0          
C10      C      0.438090000000     0.432100000000     0.779800000000     0          
H11      H      0.459350000000     0.438570000000     0.798020000000     0          
C12      C      0.436230000000     0.407900000000     0.725900000000     0          
C13      C      0.404460000000     0.398300000000     0.698700000000     0          
H14      H      0.403220000000     0.382120000000     0.662690000000     0          
C15      C      0.468100000000     0.394600000000     0.693300000000     0          
C16      C      0.494400000000     0.361000000000     0.612800000000     0          
C17      C      0.525800000000     0.389400000000     0.694600000000     0          
C18      C      0.524180000000     0.330900000000     0.514600000000     0          
H19      H      0.545150000000     0.335670000000     0.536050000000     0          
C20      C      0.523250000000     0.312200000000     0.452000000000     0          
H21      H      0.543590000000     0.304560000000     0.431500000000     0          
C22      C      0.491920000000     0.305000000000     0.419900000000     0          
C23      C      0.461520000000     0.316500000000     0.450500000000     0          
H24      H      0.440550000000     0.311700000000     0.429000000000     0          
C25      C      0.462450000000     0.335100000000     0.513100000000     0          
H26      H      0.442110000000     0.342810000000     0.533550000000     0          
C27      C      0.493780000000     0.342300000000     0.545200000000     0          
C28      C      0.491000000000     0.288100000000     0.348900000000     0          
C29      C      0.559130000000     0.399600000000     0.725900000000     0          
C30      C      0.559600000000     0.422200000000     0.782800000000     0          
H31      H      0.539060000000     0.430050000000     0.802010000000     0          
C32      C      0.590780000000     0.433100000000     0.810800000000     0          
H33      H      0.591100000000     0.448210000000     0.848850000000     0          
C34      C      0.621480000000     0.421300000000     0.782100000000     0          
C35      C      0.621010000000     0.398700000000     0.725200000000     0          
H36      H      0.641550000000     0.390820000000     0.705960000000     0          
C37      C      0.589830000000     0.387800000000     0.697200000000     0          
H38      H      0.589520000000     0.372660000000     0.659120000000     0          
C39      C      0.655200000000     0.434600000000     0.809200000000     0          
N40      N      0.464900000000     0.374300000000     0.636400000000     0          
N41      N      0.525900000000     0.369800000000     0.638800000000     0          
N42      N      0.497000000000     0.403700000000     0.722400000000     0          
O43      O      0.316910000000     0.445800000000     0.779200000000     0          
O44      O      0.347830000000     0.473900000000     0.859400000000     0          
O45      O      0.462100000000     0.282700000000     0.322200000000     0          
O46      O      0.520270000000     0.280300000000     0.321100000000     0          
O47      O      0.681840000000     0.424970000000     0.778900000000     0          
O48      O      0.652470000000     0.455500000000     0.860400000000     0          
O49      O      0.262000000000     0.408700000000     0.819800000000     0          
O50      O      0.239000000000     0.611000000000     0.932500000000     0          
O51      O      0.219900000000     0.466200000000     0.854400000000     0          
O52      O      0.232900000000     0.511300000000     0.765600000000     0          
O53      O      0.205900000000     0.510100000000     0.945900000000     0          
O54      O      0.279600000000     0.555400000000     0.896500000000     0          
O55      O      0.264400000000     0.916400000000     0.208200000000     0          
C56      C      0.247000000000     0.682500000000     0.936900000000     0          
H57      H      0.244780000000     0.670530000000     0.979220000000     0          
N58      N      0.255900000000     0.789600000000     0.937300000000     0          
C59      C      0.247200000000     0.718100000000     0.938900000000     0          
H60      H      0.245440000000     0.729700000000     0.981670000000     0          
C61      C      0.259500000000     0.825300000000     0.934900000000     0          
O62      O      0.304800000000     0.881200000000     0.242600000000     0          
C63      C      0.283200000000     0.891000000000     0.198600000000     0          
C64      C      0.287700000000     0.839600000000     0.121500000000     0          
H65      H      0.299360000000     0.828960000000     0.158460000000     0          
C66      C      0.281400000000     0.821800000000     0.059200000000     0          
H67      H      0.288830000000     0.799170000000     0.054480000000     0          
C68      C      0.264100000000     0.837700000000     0.004100000000     0          
C69      C      0.253000000000     0.871500000000     0.011200000000     0          
H70      H      0.241370000000     0.882210000000     0.974260000000     0          
C71      C      0.259300000000     0.889400000000     0.073500000000     0          
H72      H      0.251900000000     0.912000000000     0.078240000000     0          
C73      C      0.276700000000     0.873400000000     0.128700000000     0          
H74      H      0.259470000000     0.346250000000     0.831310000000     0          
H75      H      0.263670000000     0.346250000000     0.913710000000     0          
H76      H      0.226860000000     0.346250000000     0.879980000000     0          
Zr77     Zr     0.763630000000     0.964660000000     0.285950000000     0          
Zr78     Zr     0.689250000000     0.009870000000     0.336370000000     0          
Zr79     Zr     0.735660000000     0.055450000000     0.463690000000     0          
C80      C      0.843800000000     0.952700000000     0.308700000000     0          
C81      C      0.874550000000     0.912900000000     0.225500000000     0          
H82      H      0.853290000000     0.906480000000     0.207260000000     0          
C83      C      0.876400000000     0.937100000000     0.279300000000     0          
C84      C      0.908170000000     0.946700000000     0.306500000000     0          
H85      H      0.909410000000     0.962930000000     0.342580000000     0          
C86      C      0.938090000000     0.932100000000     0.279800000000     0          
H87      H      0.959350000000     0.938570000000     0.298020000000     0          
C88      C      0.936230000000     0.907900000000     0.225900000000     0          
C89      C      0.904460000000     0.898300000000     0.198700000000     0          
H90      H      0.903220000000     0.882120000000     0.162690000000     0          
C91      C      0.968100000000     0.894600000000     0.193300000000     0          
C92      C      0.994400000000     0.861000000000     0.112800000000     0          
C93      C      0.025800000000     0.889400000000     0.194600000000     0          
C94      C      0.024180000000     0.830900000000     0.014600000000     0          
H95      H      0.045150000000     0.835670000000     0.036050000000     0          
C96      C      0.023250000000     0.812200000000     0.952000000000     0          
H97      H      0.043590000000     0.804560000000     0.931500000000     0          
C98      C      0.991920000000     0.805000000000     0.919900000000     0          
C99      C      0.961520000000     0.816500000000     0.950500000000     0          
H100     H      0.940550000000     0.811700000000     0.929000000000     0          
C101     C      0.962450000000     0.835100000000     0.013100000000     0          
H102     H      0.942110000000     0.842810000000     0.033550000000     0          
C103     C      0.993780000000     0.842300000000     0.045200000000     0          
C104     C      0.991000000000     0.788100000000     0.848900000000     0          
C105     C      0.059130000000     0.899600000000     0.225900000000     0          
C106     C      0.059600000000     0.922200000000     0.282800000000     0          
H107     H      0.039060000000     0.930050000000     0.302010000000     0          
C108     C      0.090780000000     0.933100000000     0.310800000000     0          
H109     H      0.091100000000     0.948210000000     0.348850000000     0          
C110     C      0.121480000000     0.921300000000     0.282100000000     0          
C111     C      0.121010000000     0.898700000000     0.225200000000     0          
H112     H      0.141550000000     0.890820000000     0.205960000000     0          
C113     C      0.089830000000     0.887800000000     0.197200000000     0          
H114     H      0.089520000000     0.872660000000     0.159120000000     0          
C115     C      0.155200000000     0.934600000000     0.309200000000     0          
N116     N      0.964900000000     0.874300000000     0.136400000000     0          
N117     N      0.025900000000     0.869800000000     0.138800000000     0          
N118     N      0.997000000000     0.903700000000     0.222400000000     0          
O119     O      0.816910000000     0.945800000000     0.279200000000     0          
O120     O      0.847830000000     0.973900000000     0.359400000000     0          
O121     O      0.962100000000     0.782700000000     0.822200000000     0          
O122     O      0.020270000000     0.780300000000     0.821100000000     0          
O123     O      0.181840000000     0.924970000000     0.278900000000     0          
O124     O      0.152470000000     0.955500000000     0.360400000000     0          
O125     O      0.762000000000     0.908700000000     0.319800000000     0          
O126     O      0.739000000000     0.111000000000     0.432500000000     0          
O127     O      0.719900000000     0.966200000000     0.354400000000     0          
O128     O      0.732900000000     0.011300000000     0.265600000000     0          
O129     O      0.705900000000     0.010100000000     0.445900000000     0          
O130     O      0.779600000000     0.055400000000     0.396500000000     0          
O131     O      0.764400000000     0.416400000000     0.708200000000     0          
C132     C      0.747000000000     0.182500000000     0.436900000000     0          
H133     H      0.744780000000     0.170530000000     0.479220000000     0          
N134     N      0.755900000000     0.289600000000     0.437300000000     0          
C135     C      0.747200000000     0.218100000000     0.438900000000     0          
H136     H      0.745440000000     0.229700000000     0.481670000000     0          
C137     C      0.759500000000     0.325300000000     0.434900000000     0          
O138     O      0.804800000000     0.381200000000     0.742600000000     0          
C139     C      0.783200000000     0.391000000000     0.698600000000     0          
C140     C      0.787700000000     0.339600000000     0.621500000000     0          
H141     H      0.799360000000     0.328960000000     0.658460000000     0          
C142     C      0.781400000000     0.321800000000     0.559200000000     0          
H143     H      0.788830000000     0.299170000000     0.554480000000     0          
C144     C      0.764100000000     0.337700000000     0.504100000000     0          
C145     C      0.753000000000     0.371500000000     0.511200000000     0          
H146     H      0.741370000000     0.382210000000     0.474260000000     0          
C147     C      0.759300000000     0.389400000000     0.573500000000     0          
H148     H      0.751900000000     0.412000000000     0.578240000000     0          
C149     C      0.776700000000     0.373400000000     0.628700000000     0          
Zr150    Zr     0.736370000000     0.535340000000     0.785950000000     0          
Zr151    Zr     0.810750000000     0.490130000000     0.836370000000     0          
Zr152    Zr     0.764340000000     0.444550000000     0.963690000000     0          
C153     C      0.656200000000     0.547300000000     0.808700000000     0          
C154     C      0.625450000000     0.587100000000     0.725500000000     0          
H155     H      0.646710000000     0.593520000000     0.707260000000     0          
C156     C      0.623600000000     0.562900000000     0.779300000000     0          
C157     C      0.591830000000     0.553300000000     0.806500000000     0          
H158     H      0.590590000000     0.537070000000     0.842580000000     0          
C159     C      0.561910000000     0.567900000000     0.779800000000     0          
H160     H      0.540650000000     0.561430000000     0.798020000000     0          
C161     C      0.563770000000     0.592100000000     0.725900000000     0          
C162     C      0.595540000000     0.601700000000     0.698700000000     0          
H163     H      0.596780000000     0.617880000000     0.662690000000     0          
C164     C      0.531900000000     0.605400000000     0.693300000000     0          
C165     C      0.505600000000     0.639000000000     0.612800000000     0          
C166     C      0.474200000000     0.610600000000     0.694600000000     0          
C167     C      0.475820000000     0.669100000000     0.514600000000     0          
H168     H      0.454850000000     0.664330000000     0.536050000000     0          
C169     C      0.476750000000     0.687800000000     0.452000000000     0          
H170     H      0.456410000000     0.695440000000     0.431500000000     0          
C171     C      0.508080000000     0.695000000000     0.419900000000     0          
C172     C      0.538480000000     0.683500000000     0.450500000000     0          
H173     H      0.559450000000     0.688300000000     0.429000000000     0          
C174     C      0.537550000000     0.664900000000     0.513100000000     0          
H175     H      0.557890000000     0.657190000000     0.533550000000     0          
C176     C      0.506220000000     0.657700000000     0.545200000000     0          
C177     C      0.509000000000     0.711900000000     0.348900000000     0          
C178     C      0.440870000000     0.600400000000     0.725900000000     0          
C179     C      0.440400000000     0.577800000000     0.782800000000     0          
H180     H      0.460940000000     0.569950000000     0.802010000000     0          
C181     C      0.409220000000     0.566900000000     0.810800000000     0          
H182     H      0.408900000000     0.551790000000     0.848850000000     0          
C183     C      0.378520000000     0.578700000000     0.782100000000     0          
C184     C      0.378990000000     0.601300000000     0.725200000000     0          
H185     H      0.358450000000     0.609180000000     0.705960000000     0          
C186     C      0.410170000000     0.612200000000     0.697200000000     0          
H187     H      0.410480000000     0.627340000000     0.659120000000     0          
C188     C      0.344800000000     0.565400000000     0.809200000000     0          
N189     N      0.535100000000     0.625700000000     0.636400000000     0          
N190     N      0.474100000000     0.630200000000     0.638800000000     0          
N191     N      0.503000000000     0.596300000000     0.722400000000     0          
O192     O      0.683090000000     0.554200000000     0.779200000000     0          
O193     O      0.652170000000     0.526100000000     0.859400000000     0          
O194     O      0.537900000000     0.717300000000     0.322200000000     0          
O195     O      0.479730000000     0.719700000000     0.321100000000     0          
O196     O      0.318160000000     0.575030000000     0.778900000000     0          
O197     O      0.347530000000     0.544500000000     0.860400000000     0          
O198     O      0.738000000000     0.591300000000     0.819800000000     0          
O199     O      0.761000000000     0.389000000000     0.932500000000     0          
O200     O      0.780100000000     0.533800000000     0.854400000000     0          
O201     O      0.767100000000     0.488700000000     0.765600000000     0          
O202     O      0.794100000000     0.489900000000     0.945900000000     0          
O203     O      0.720400000000     0.444600000000     0.896500000000     0          
O204     O      0.735600000000     0.083600000000     0.208200000000     0          
C205     C      0.753000000000     0.317500000000     0.936900000000     0          
H206     H      0.755220000000     0.329470000000     0.979220000000     0          
N207     N      0.744100000000     0.210400000000     0.937300000000     0          
C208     C      0.752800000000     0.281900000000     0.938900000000     0          
H209     H      0.754560000000     0.270300000000     0.981670000000     0          
C210     C      0.740500000000     0.174700000000     0.934900000000     0          
O211     O      0.717400000000     0.045200000000     0.122900000000     0          
C212     C      0.727300000000     0.073800000000     0.147700000000     0          
C213     C      0.715400000000     0.093800000000     0.025000000000     0          
H214     H      0.703660000000     0.073340000000     0.017300000000     0          
C215     C      0.721500000000     0.116100000000     0.969000000000     0          
H216     H      0.713810000000     0.110630000000     0.923920000000     0          
C217     C      0.739100000000     0.146700000000     0.980500000000     0          
C218     C      0.750600000000     0.155000000000     0.048000000000     0          
H219     H      0.762430000000     0.175440000000     0.055650000000     0          
C220     C      0.744600000000     0.132600000000     0.103900000000     0          
H221     H      0.752280000000     0.138150000000     0.149030000000     0          
C222     C      0.727000000000     0.102000000000     0.092400000000     0          
Zr223    Zr     0.236370000000     0.035340000000     0.285950000000     0          
Zr224    Zr     0.310750000000     0.990130000000     0.336370000000     0          
Zr225    Zr     0.264340000000     0.944550000000     0.463690000000     0          
C226     C      0.156200000000     0.047300000000     0.308700000000     0          
C227     C      0.125450000000     0.087100000000     0.225500000000     0          
H228     H      0.146710000000     0.093520000000     0.207260000000     0          
C229     C      0.123600000000     0.062900000000     0.279300000000     0          
C230     C      0.091830000000     0.053300000000     0.306500000000     0          
H231     H      0.090590000000     0.037070000000     0.342580000000     0          
C232     C      0.061910000000     0.067900000000     0.279800000000     0          
H233     H      0.040650000000     0.061430000000     0.298020000000     0          
C234     C      0.063770000000     0.092100000000     0.225900000000     0          
C235     C      0.095540000000     0.101700000000     0.198700000000     0          
H236     H      0.096780000000     0.117880000000     0.162690000000     0          
C237     C      0.031900000000     0.105400000000     0.193300000000     0          
C238     C      0.005600000000     0.139000000000     0.112800000000     0          
C239     C      0.974200000000     0.110600000000     0.194600000000     0          
C240     C      0.975820000000     0.169100000000     0.014600000000     0          
H241     H      0.954850000000     0.164330000000     0.036050000000     0          
C242     C      0.976750000000     0.187800000000     0.952000000000     0          
H243     H      0.956410000000     0.195440000000     0.931500000000     0          
C244     C      0.008080000000     0.195000000000     0.919900000000     0          
C245     C      0.038480000000     0.183500000000     0.950500000000     0          
H246     H      0.059450000000     0.188300000000     0.929000000000     0          
C247     C      0.037550000000     0.164900000000     0.013100000000     0          
H248     H      0.057890000000     0.157190000000     0.033550000000     0          
C249     C      0.006220000000     0.157700000000     0.045200000000     0          
C250     C      0.009000000000     0.211900000000     0.848900000000     0          
C251     C      0.940870000000     0.100400000000     0.225900000000     0          
C252     C      0.940400000000     0.077800000000     0.282800000000     0          
H253     H      0.960940000000     0.069950000000     0.302010000000     0          
C254     C      0.909220000000     0.066900000000     0.310800000000     0          
H255     H      0.908900000000     0.051790000000     0.348850000000     0          
C256     C      0.878520000000     0.078700000000     0.282100000000     0          
C257     C      0.878990000000     0.101300000000     0.225200000000     0          
H258     H      0.858450000000     0.109180000000     0.205960000000     0          
C259     C      0.910170000000     0.112200000000     0.197200000000     0          
H260     H      0.910480000000     0.127340000000     0.159120000000     0          
C261     C      0.844800000000     0.065400000000     0.309200000000     0          
N262     N      0.035100000000     0.125700000000     0.136400000000     0          
N263     N      0.974100000000     0.130200000000     0.138800000000     0          
N264     N      0.003000000000     0.096300000000     0.222400000000     0          
O265     O      0.183090000000     0.054200000000     0.279200000000     0          
O266     O      0.152170000000     0.026100000000     0.359400000000     0          
O267     O      0.037900000000     0.217300000000     0.822200000000     0          
O268     O      0.979730000000     0.219700000000     0.821100000000     0          
O269     O      0.818160000000     0.075030000000     0.278900000000     0          
O270     O      0.847530000000     0.044500000000     0.360400000000     0          
O271     O      0.238000000000     0.091300000000     0.319800000000     0          
O272     O      0.261000000000     0.889000000000     0.432500000000     0          
O273     O      0.280100000000     0.033800000000     0.354400000000     0          
O274     O      0.267100000000     0.988700000000     0.265600000000     0          
O275     O      0.294100000000     0.989900000000     0.445900000000     0          
O276     O      0.220400000000     0.944600000000     0.396500000000     0          
O277     O      0.235600000000     0.583600000000     0.708200000000     0          
C278     C      0.253000000000     0.817500000000     0.436900000000     0          
H279     H      0.255220000000     0.829470000000     0.479220000000     0          
N280     N      0.244100000000     0.710400000000     0.437300000000     0          
C281     C      0.252800000000     0.781900000000     0.438900000000     0          
H282     H      0.254560000000     0.770300000000     0.481670000000     0          
C283     C      0.240500000000     0.674700000000     0.434900000000     0          
O284     O      0.195200000000     0.618800000000     0.742600000000     0          
C285     C      0.216800000000     0.609000000000     0.698600000000     0          
C286     C      0.212300000000     0.660400000000     0.621500000000     0          
H287     H      0.200640000000     0.671040000000     0.658460000000     0          
C288     C      0.218600000000     0.678200000000     0.559200000000     0          
H289     H      0.211170000000     0.700830000000     0.554480000000     0          
C290     C      0.235900000000     0.662300000000     0.504100000000     0          
C291     C      0.247000000000     0.628500000000     0.511200000000     0          
H292     H      0.258630000000     0.617790000000     0.474260000000     0          
C293     C      0.240700000000     0.610600000000     0.573500000000     0          
H294     H      0.248100000000     0.588000000000     0.578240000000     0          
C295     C      0.223300000000     0.626600000000     0.628700000000     0          
Zr296    Zr     0.464660000000     0.736370000000     0.214050000000     0          
Zr297    Zr     0.509870000000     0.810750000000     0.163630000000     0          
Zr298    Zr     0.555450000000     0.764340000000     0.036310000000     0          
C299     C      0.452700000000     0.656200000000     0.191300000000     0          
C300     C      0.412900000000     0.625450000000     0.274500000000     0          
H301     H      0.406480000000     0.646710000000     0.292740000000     0          
C302     C      0.437100000000     0.623600000000     0.220700000000     0          
C303     C      0.446700000000     0.591830000000     0.193500000000     0          
H304     H      0.462930000000     0.590590000000     0.157420000000     0          
C305     C      0.432100000000     0.561910000000     0.220200000000     0          
H306     H      0.438570000000     0.540650000000     0.201980000000     0          
C307     C      0.407900000000     0.563770000000     0.274100000000     0          
C308     C      0.398300000000     0.595540000000     0.301300000000     0          
H309     H      0.382120000000     0.596780000000     0.337310000000     0          
C310     C      0.394600000000     0.531900000000     0.306700000000     0          
C311     C      0.361000000000     0.505600000000     0.387200000000     0          
C312     C      0.389400000000     0.474200000000     0.305400000000     0          
C313     C      0.330900000000     0.475820000000     0.485400000000     0          
H314     H      0.335670000000     0.454850000000     0.463950000000     0          
C315     C      0.312200000000     0.476750000000     0.548000000000     0          
H316     H      0.304560000000     0.456410000000     0.568500000000     0          
C317     C      0.305000000000     0.508080000000     0.580100000000     0          
C318     C      0.316500000000     0.538480000000     0.549500000000     0          
H319     H      0.311700000000     0.559450000000     0.571000000000     0          
C320     C      0.335100000000     0.537550000000     0.486900000000     0          
H321     H      0.342810000000     0.557890000000     0.466450000000     0          
C322     C      0.342300000000     0.506220000000     0.454800000000     0          
C323     C      0.288100000000     0.509000000000     0.651100000000     0          
C324     C      0.399600000000     0.440870000000     0.274100000000     0          
C325     C      0.422200000000     0.440400000000     0.217200000000     0          
H326     H      0.430050000000     0.460940000000     0.197990000000     0          
C327     C      0.433100000000     0.409220000000     0.189200000000     0          
H328     H      0.448210000000     0.408900000000     0.151150000000     0          
C329     C      0.421300000000     0.378520000000     0.217900000000     0          
C330     C      0.398700000000     0.378990000000     0.274800000000     0          
H331     H      0.390820000000     0.358450000000     0.294040000000     0          
C332     C      0.387800000000     0.410170000000     0.302800000000     0          
H333     H      0.372660000000     0.410480000000     0.340880000000     0          
C334     C      0.434600000000     0.344800000000     0.190800000000     0          
N335     N      0.374300000000     0.535100000000     0.363600000000     0          
N336     N      0.369800000000     0.474100000000     0.361200000000     0          
N337     N      0.403700000000     0.503000000000     0.277600000000     0          
O338     O      0.445800000000     0.683090000000     0.220800000000     0          
O339     O      0.473900000000     0.652170000000     0.140600000000     0          
O340     O      0.282700000000     0.537900000000     0.677800000000     0          
O341     O      0.280300000000     0.479730000000     0.678900000000     0          
O342     O      0.424970000000     0.318160000000     0.221100000000     0          
O343     O      0.455500000000     0.347530000000     0.139600000000     0          
O344     O      0.408700000000     0.738000000000     0.180200000000     0          
O345     O      0.611000000000     0.761000000000     0.067500000000     0          
O346     O      0.466200000000     0.780100000000     0.145600000000     0          
O347     O      0.511300000000     0.767100000000     0.234400000000     0          
O348     O      0.510100000000     0.794100000000     0.054100000000     0          
O349     O      0.555400000000     0.720400000000     0.103500000000     0          
O350     O      0.916400000000     0.735600000000     0.791800000000     0          
C351     C      0.682500000000     0.753000000000     0.063100000000     0          
H352     H      0.670530000000     0.755220000000     0.020780000000     0          
N353     N      0.789600000000     0.744100000000     0.062700000000     0          
C354     C      0.718100000000     0.752800000000     0.061100000000     0          
H355     H      0.729700000000     0.754560000000     0.018330000000     0          
C356     C      0.825300000000     0.740500000000     0.065100000000     0          
O357     O      0.954800000000     0.717400000000     0.877100000000     0          
C358     C      0.926200000000     0.727300000000     0.852300000000     0          
C359     C      0.906200000000     0.715400000000     0.975000000000     0          
H360     H      0.926660000000     0.703660000000     0.982700000000     0          
C361     C      0.883900000000     0.721500000000     0.031000000000     0          
H362     H      0.889370000000     0.713810000000     0.076080000000     0          
C363     C      0.853300000000     0.739100000000     0.019500000000     0          
C364     C      0.845000000000     0.750600000000     0.952000000000     0          
H365     H      0.824560000000     0.762430000000     0.944350000000     0          
C366     C      0.867400000000     0.744600000000     0.896100000000     0          
H367     H      0.861850000000     0.752280000000     0.850970000000     0          
C368     C      0.898000000000     0.727000000000     0.907600000000     0          
H369     H      0.346250000000     0.740530000000     0.168690000000     0          
H370     H      0.346250000000     0.736330000000     0.086290000000     0          
H371     H      0.346250000000     0.773140000000     0.120020000000     0          
Zr372    Zr     0.964660000000     0.236370000000     0.714050000000     0          
Zr373    Zr     0.009870000000     0.310750000000     0.663630000000     0          
Zr374    Zr     0.055450000000     0.264340000000     0.536310000000     0          
C375     C      0.952700000000     0.156200000000     0.691300000000     0          
C376     C      0.912900000000     0.125450000000     0.774500000000     0          
H377     H      0.906480000000     0.146710000000     0.792740000000     0          
C378     C      0.937100000000     0.123600000000     0.720700000000     0          
C379     C      0.946700000000     0.091830000000     0.693500000000     0          
H380     H      0.962930000000     0.090590000000     0.657420000000     0          
C381     C      0.932100000000     0.061910000000     0.720200000000     0          
H382     H      0.938570000000     0.040650000000     0.701980000000     0          
C383     C      0.907900000000     0.063770000000     0.774100000000     0          
C384     C      0.898300000000     0.095540000000     0.801300000000     0          
H385     H      0.882120000000     0.096780000000     0.837310000000     0          
C386     C      0.894600000000     0.031900000000     0.806700000000     0          
C387     C      0.861000000000     0.005600000000     0.887200000000     0          
C388     C      0.889400000000     0.974200000000     0.805400000000     0          
C389     C      0.830900000000     0.975820000000     0.985400000000     0          
H390     H      0.835670000000     0.954850000000     0.963950000000     0          
C391     C      0.812200000000     0.976750000000     0.048000000000     0          
H392     H      0.804560000000     0.956410000000     0.068500000000     0          
C393     C      0.805000000000     0.008080000000     0.080100000000     0          
C394     C      0.816500000000     0.038480000000     0.049500000000     0          
H395     H      0.811700000000     0.059450000000     0.071000000000     0          
C396     C      0.835100000000     0.037550000000     0.986900000000     0          
H397     H      0.842810000000     0.057890000000     0.966450000000     0          
C398     C      0.842300000000     0.006220000000     0.954800000000     0          
C399     C      0.788100000000     0.009000000000     0.151100000000     0          
C400     C      0.899600000000     0.940870000000     0.774100000000     0          
C401     C      0.922200000000     0.940400000000     0.717200000000     0          
H402     H      0.930050000000     0.960940000000     0.697990000000     0          
C403     C      0.933100000000     0.909220000000     0.689200000000     0          
H404     H      0.948210000000     0.908900000000     0.651150000000     0          
C405     C      0.921300000000     0.878520000000     0.717900000000     0          
C406     C      0.898700000000     0.878990000000     0.774800000000     0          
H407     H      0.890820000000     0.858450000000     0.794040000000     0          
C408     C      0.887800000000     0.910170000000     0.802800000000     0          
H409     H      0.872660000000     0.910480000000     0.840880000000     0          
C410     C      0.934600000000     0.844800000000     0.690800000000     0          
N411     N      0.874300000000     0.035100000000     0.863600000000     0          
N412     N      0.869800000000     0.974100000000     0.861200000000     0          
N413     N      0.903700000000     0.003000000000     0.777600000000     0          
O414     O      0.945800000000     0.183090000000     0.720800000000     0          
O415     O      0.973900000000     0.152170000000     0.640600000000     0          
O416     O      0.782700000000     0.037900000000     0.177800000000     0          
O417     O      0.780300000000     0.979730000000     0.178900000000     0          
O418     O      0.924970000000     0.818160000000     0.721100000000     0          
O419     O      0.955500000000     0.847530000000     0.639600000000     0          
O420     O      0.908700000000     0.238000000000     0.680200000000     0          
O421     O      0.111000000000     0.261000000000     0.567500000000     0          
O422     O      0.966200000000     0.280100000000     0.645600000000     0          
O423     O      0.011300000000     0.267100000000     0.734400000000     0          
O424     O      0.010100000000     0.294100000000     0.554100000000     0          
O425     O      0.055400000000     0.220400000000     0.603500000000     0          
O426     O      0.416400000000     0.235600000000     0.291800000000     0          
C427     C      0.182500000000     0.253000000000     0.563100000000     0          
H428     H      0.170530000000     0.255220000000     0.520780000000     0          
N429     N      0.289600000000     0.244100000000     0.562700000000     0          
C430     C      0.218100000000     0.252800000000     0.561100000000     0          
H431     H      0.229700000000     0.254560000000     0.518330000000     0          
C432     C      0.325300000000     0.240500000000     0.565100000000     0          
O433     O      0.381200000000     0.195200000000     0.257400000000     0          
C434     C      0.391000000000     0.216800000000     0.301400000000     0          
C435     C      0.339600000000     0.212300000000     0.378500000000     0          
H436     H      0.328960000000     0.200640000000     0.341540000000     0          
C437     C      0.321800000000     0.218600000000     0.440800000000     0          
H438     H      0.299170000000     0.211170000000     0.445520000000     0          
C439     C      0.337700000000     0.235900000000     0.495900000000     0          
C440     C      0.371500000000     0.247000000000     0.488800000000     0          
H441     H      0.382210000000     0.258630000000     0.525740000000     0          
C442     C      0.389400000000     0.240700000000     0.426500000000     0          
H443     H      0.412000000000     0.248100000000     0.421760000000     0          
C444     C      0.373400000000     0.223300000000     0.371300000000     0          
Zr445    Zr     0.535340000000     0.263630000000     0.214050000000     0          
Zr446    Zr     0.490130000000     0.189250000000     0.163630000000     0          
Zr447    Zr     0.444550000000     0.235660000000     0.036310000000     0          
C448     C      0.547300000000     0.343800000000     0.191300000000     0          
C449     C      0.587100000000     0.374550000000     0.274500000000     0          
H450     H      0.593520000000     0.353290000000     0.292740000000     0          
C451     C      0.562900000000     0.376400000000     0.220700000000     0          
C452     C      0.553300000000     0.408170000000     0.193500000000     0          
H453     H      0.537070000000     0.409410000000     0.157420000000     0          
C454     C      0.567900000000     0.438090000000     0.220200000000     0          
H455     H      0.561430000000     0.459350000000     0.201980000000     0          
C456     C      0.592100000000     0.436230000000     0.274100000000     0          
C457     C      0.601700000000     0.404460000000     0.301300000000     0          
H458     H      0.617880000000     0.403220000000     0.337310000000     0          
C459     C      0.605400000000     0.468100000000     0.306700000000     0          
C460     C      0.639000000000     0.494400000000     0.387200000000     0          
C461     C      0.610600000000     0.525800000000     0.305400000000     0          
C462     C      0.669100000000     0.524180000000     0.485400000000     0          
H463     H      0.664330000000     0.545150000000     0.463950000000     0          
C464     C      0.687800000000     0.523250000000     0.548000000000     0          
H465     H      0.695440000000     0.543590000000     0.568500000000     0          
C466     C      0.695000000000     0.491920000000     0.580100000000     0          
C467     C      0.683500000000     0.461520000000     0.549500000000     0          
H468     H      0.688300000000     0.440550000000     0.571000000000     0          
C469     C      0.664900000000     0.462450000000     0.486900000000     0          
H470     H      0.657190000000     0.442110000000     0.466450000000     0          
C471     C      0.657700000000     0.493780000000     0.454800000000     0          
C472     C      0.711900000000     0.491000000000     0.651100000000     0          
C473     C      0.600400000000     0.559130000000     0.274100000000     0          
C474     C      0.577800000000     0.559600000000     0.217200000000     0          
H475     H      0.569950000000     0.539060000000     0.197990000000     0          
C476     C      0.566900000000     0.590780000000     0.189200000000     0          
H477     H      0.551790000000     0.591100000000     0.151150000000     0          
C478     C      0.578700000000     0.621480000000     0.217900000000     0          
C479     C      0.601300000000     0.621010000000     0.274800000000     0          
H480     H      0.609180000000     0.641550000000     0.294040000000     0          
C481     C      0.612200000000     0.589830000000     0.302800000000     0          
H482     H      0.627340000000     0.589520000000     0.340880000000     0          
C483     C      0.565400000000     0.655200000000     0.190800000000     0          
N484     N      0.625700000000     0.464900000000     0.363600000000     0          
N485     N      0.630200000000     0.525900000000     0.361200000000     0          
N486     N      0.596300000000     0.497000000000     0.277600000000     0          
O487     O      0.554200000000     0.316910000000     0.220800000000     0          
O488     O      0.526100000000     0.347830000000     0.140600000000     0          
O489     O      0.717300000000     0.462100000000     0.677800000000     0          
O490     O      0.719700000000     0.520270000000     0.678900000000     0          
O491     O      0.575030000000     0.681840000000     0.221100000000     0          
O492     O      0.544500000000     0.652470000000     0.139600000000     0          
O493     O      0.591300000000     0.262000000000     0.180200000000     0          
O494     O      0.389000000000     0.239000000000     0.067500000000     0          
O495     O      0.533800000000     0.219900000000     0.145600000000     0          
O496     O      0.488700000000     0.232900000000     0.234400000000     0          
O497     O      0.489900000000     0.205900000000     0.054100000000     0          
O498     O      0.444600000000     0.279600000000     0.103500000000     0          
O499     O      0.083600000000     0.264400000000     0.791800000000     0          
C500     C      0.317500000000     0.247000000000     0.063100000000     0          
H501     H      0.329470000000     0.244780000000     0.020780000000     0          
N502     N      0.210400000000     0.255900000000     0.062700000000     0          
C503     C      0.281900000000     0.247200000000     0.061100000000     0          
H504     H      0.270300000000     0.245440000000     0.018330000000     0          
C505     C      0.174700000000     0.259500000000     0.065100000000     0          
O506     O      0.118800000000     0.304800000000     0.757400000000     0          
C507     C      0.109000000000     0.283200000000     0.801400000000     0          
C508     C      0.160400000000     0.287700000000     0.878500000000     0          
H509     H      0.171040000000     0.299360000000     0.841540000000     0          
C510     C      0.178200000000     0.281400000000     0.940800000000     0          
H511     H      0.200830000000     0.288830000000     0.945520000000     0          
C512     C      0.162300000000     0.264100000000     0.995900000000     0          
C513     C      0.128500000000     0.253000000000     0.988800000000     0          
H514     H      0.117790000000     0.241370000000     0.025740000000     0          
C515     C      0.110600000000     0.259300000000     0.926500000000     0          
H516     H      0.088000000000     0.251900000000     0.921760000000     0          
C517     C      0.126600000000     0.276700000000     0.871300000000     0          
Zr518    Zr     0.035340000000     0.763630000000     0.714050000000     0          
Zr519    Zr     0.990130000000     0.689250000000     0.663630000000     0          
Zr520    Zr     0.944550000000     0.735660000000     0.536310000000     0          
C521     C      0.047300000000     0.843800000000     0.691300000000     0          
C522     C      0.087100000000     0.874550000000     0.774500000000     0          
H523     H      0.093520000000     0.853290000000     0.792740000000     0          
C524     C      0.062900000000     0.876400000000     0.720700000000     0          
C525     C      0.053300000000     0.908170000000     0.693500000000     0          
H526     H      0.037070000000     0.909410000000     0.657420000000     0          
C527     C      0.067900000000     0.938090000000     0.720200000000     0          
H528     H      0.061430000000     0.959350000000     0.701980000000     0          
C529     C      0.092100000000     0.936230000000     0.774100000000     0          
C530     C      0.101700000000     0.904460000000     0.801300000000     0          
H531     H      0.117880000000     0.903220000000     0.837310000000     0          
C532     C      0.105400000000     0.968100000000     0.806700000000     0          
C533     C      0.139000000000     0.994400000000     0.887200000000     0          
C534     C      0.110600000000     0.025800000000     0.805400000000     0          
C535     C      0.169100000000     0.024180000000     0.985400000000     0          
H536     H      0.164330000000     0.045150000000     0.963950000000     0          
C537     C      0.187800000000     0.023250000000     0.048000000000     0          
H538     H      0.195440000000     0.043590000000     0.068500000000     0          
C539     C      0.195000000000     0.991920000000     0.080100000000     0          
C540     C      0.183500000000     0.961520000000     0.049500000000     0          
H541     H      0.188300000000     0.940550000000     0.071000000000     0          
C542     C      0.164900000000     0.962450000000     0.986900000000     0          
H543     H      0.157190000000     0.942110000000     0.966450000000     0          
C544     C      0.157700000000     0.993780000000     0.954800000000     0          
C545     C      0.211900000000     0.991000000000     0.151100000000     0          
C546     C      0.100400000000     0.059130000000     0.774100000000     0          
C547     C      0.077800000000     0.059600000000     0.717200000000     0          
H548     H      0.069950000000     0.039060000000     0.697990000000     0          
C549     C      0.066900000000     0.090780000000     0.689200000000     0          
H550     H      0.051790000000     0.091100000000     0.651150000000     0          
C551     C      0.078700000000     0.121480000000     0.717900000000     0          
C552     C      0.101300000000     0.121010000000     0.774800000000     0          
H553     H      0.109180000000     0.141550000000     0.794040000000     0          
C554     C      0.112200000000     0.089830000000     0.802800000000     0          
H555     H      0.127340000000     0.089520000000     0.840880000000     0          
C556     C      0.065400000000     0.155200000000     0.690800000000     0          
N557     N      0.125700000000     0.964900000000     0.863600000000     0          
N558     N      0.130200000000     0.025900000000     0.861200000000     0          
N559     N      0.096300000000     0.997000000000     0.777600000000     0          
O560     O      0.054200000000     0.816910000000     0.720800000000     0          
O561     O      0.026100000000     0.847830000000     0.640600000000     0          
O562     O      0.217300000000     0.962100000000     0.177800000000     0          
O563     O      0.219700000000     0.020270000000     0.178900000000     0          
O564     O      0.075030000000     0.181840000000     0.721100000000     0          
O565     O      0.044500000000     0.152470000000     0.639600000000     0          
O566     O      0.091300000000     0.762000000000     0.680200000000     0          
O567     O      0.889000000000     0.739000000000     0.567500000000     0          
O568     O      0.033800000000     0.719900000000     0.645600000000     0          
O569     O      0.988700000000     0.732900000000     0.734400000000     0          
O570     O      0.989900000000     0.705900000000     0.554100000000     0          
O571     O      0.944600000000     0.779600000000     0.603500000000     0          
O572     O      0.583600000000     0.764400000000     0.291800000000     0          
C573     C      0.817500000000     0.747000000000     0.563100000000     0          
H574     H      0.829470000000     0.744780000000     0.520780000000     0          
N575     N      0.710400000000     0.755900000000     0.562700000000     0          
C576     C      0.781900000000     0.747200000000     0.561100000000     0          
H577     H      0.770300000000     0.745440000000     0.518330000000     0          
C578     C      0.674700000000     0.759500000000     0.565100000000     0          
O579     O      0.545200000000     0.782600000000     0.377100000000     0          
C580     C      0.573800000000     0.772700000000     0.352300000000     0          
C581     C      0.593800000000     0.784600000000     0.475000000000     0          
H582     H      0.573340000000     0.796340000000     0.482700000000     0          
C583     C      0.616100000000     0.778500000000     0.531000000000     0          
H584     H      0.610630000000     0.786190000000     0.576080000000     0          
C585     C      0.646700000000     0.760900000000     0.519500000000     0          
C586     C      0.655000000000     0.749400000000     0.452000000000     0          
H587     H      0.675440000000     0.737570000000     0.444350000000     0          
C588     C      0.632600000000     0.755400000000     0.396100000000     0          
H589     H      0.638150000000     0.747720000000     0.350970000000     0          
C590     C      0.602000000000     0.773000000000     0.407600000000     0          
H591     H      0.153750000000     0.759470000000     0.668690000000     0          
H592     H      0.153750000000     0.763670000000     0.586290000000     0          
H593     H      0.153750000000     0.726860000000     0.620020000000     0          
Zr594    Zr     0.236370000000     0.464660000000     0.964050000000     0          
Zr595    Zr     0.310750000000     0.509870000000     0.913630000000     0          
Zr596    Zr     0.264340000000     0.555450000000     0.786310000000     0          
C597     C      0.156200000000     0.452700000000     0.941300000000     0          
C598     C      0.125450000000     0.412900000000     0.024500000000     0          
H599     H      0.146710000000     0.406480000000     0.042740000000     0          
C600     C      0.123600000000     0.437100000000     0.970700000000     0          
C601     C      0.091830000000     0.446700000000     0.943500000000     0          
H602     H      0.090590000000     0.462930000000     0.907420000000     0          
C603     C      0.061910000000     0.432100000000     0.970200000000     0          
H604     H      0.040650000000     0.438570000000     0.951980000000     0          
C605     C      0.063770000000     0.407900000000     0.024100000000     0          
C606     C      0.095540000000     0.398300000000     0.051300000000     0          
H607     H      0.096780000000     0.382120000000     0.087310000000     0          
C608     C      0.031900000000     0.394600000000     0.056700000000     0          
C609     C      0.005600000000     0.361000000000     0.137200000000     0          
C610     C      0.974200000000     0.389400000000     0.055400000000     0          
C611     C      0.975820000000     0.330900000000     0.235400000000     0          
H612     H      0.954850000000     0.335670000000     0.213950000000     0          
C613     C      0.976750000000     0.312200000000     0.298000000000     0          
H614     H      0.956410000000     0.304560000000     0.318500000000     0          
C615     C      0.008080000000     0.305000000000     0.330100000000     0          
C616     C      0.038480000000     0.316500000000     0.299500000000     0          
H617     H      0.059450000000     0.311700000000     0.321000000000     0          
C618     C      0.037550000000     0.335100000000     0.236900000000     0          
H619     H      0.057890000000     0.342810000000     0.216450000000     0          
C620     C      0.006220000000     0.342300000000     0.204800000000     0          
C621     C      0.009000000000     0.288100000000     0.401100000000     0          
C622     C      0.940870000000     0.399600000000     0.024100000000     0          
C623     C      0.940400000000     0.422200000000     0.967200000000     0          
H624     H      0.960940000000     0.430050000000     0.947990000000     0          
C625     C      0.909220000000     0.433100000000     0.939200000000     0          
H626     H      0.908900000000     0.448210000000     0.901150000000     0          
C627     C      0.878520000000     0.421300000000     0.967900000000     0          
C628     C      0.878990000000     0.398700000000     0.024800000000     0          
H629     H      0.858450000000     0.390820000000     0.044040000000     0          
C630     C      0.910170000000     0.387800000000     0.052800000000     0          
H631     H      0.910480000000     0.372660000000     0.090880000000     0          
C632     C      0.844800000000     0.434600000000     0.940800000000     0          
N633     N      0.035100000000     0.374300000000     0.113600000000     0          
N634     N      0.974100000000     0.369800000000     0.111200000000     0          
N635     N      0.003000000000     0.403700000000     0.027600000000     0          
O636     O      0.183090000000     0.445800000000     0.970800000000     0          
O637     O      0.152170000000     0.473900000000     0.890600000000     0          
O638     O      0.037900000000     0.282700000000     0.427800000000     0          
O639     O      0.979730000000     0.280300000000     0.428900000000     0          
O640     O      0.818160000000     0.424970000000     0.971100000000     0          
O641     O      0.847530000000     0.455500000000     0.889600000000     0          
O642     O      0.238000000000     0.408700000000     0.930200000000     0          
O643     O      0.261000000000     0.611000000000     0.817500000000     0          
O644     O      0.280100000000     0.466200000000     0.895600000000     0          
O645     O      0.267100000000     0.511300000000     0.984400000000     0          
O646     O      0.294100000000     0.510100000000     0.804100000000     0          
O647     O      0.220400000000     0.555400000000     0.853500000000     0          
O648     O      0.235600000000     0.916400000000     0.541800000000     0          
C649     C      0.253000000000     0.682500000000     0.813100000000     0          
H650     H      0.255220000000     0.670530000000     0.770780000000     0          
N651     N      0.244100000000     0.789600000000     0.812700000000     0          
C652     C      0.252800000000     0.718100000000     0.811100000000     0          
H653     H      0.254560000000     0.729700000000     0.768330000000     0          
C654     C      0.240500000000     0.825300000000     0.815100000000     0          
O655     O      0.217400000000     0.954800000000     0.627100000000     0          
C656     C      0.227300000000     0.926200000000     0.602300000000     0          
C657     C      0.215400000000     0.906200000000     0.725000000000     0          
H658     H      0.203660000000     0.926660000000     0.732700000000     0          
C659     C      0.221500000000     0.883900000000     0.781000000000     0          
H660     H      0.213810000000     0.889370000000     0.826080000000     0          
C661     C      0.239100000000     0.853300000000     0.769500000000     0          
C662     C      0.250600000000     0.845000000000     0.702000000000     0          
H663     H      0.262430000000     0.824560000000     0.694350000000     0          
C664     C      0.244600000000     0.867400000000     0.646100000000     0          
H665     H      0.252280000000     0.861850000000     0.600970000000     0          
C666     C      0.227000000000     0.898000000000     0.657600000000     0          
Zr667    Zr     0.736370000000     0.964660000000     0.464050000000     0          
Zr668    Zr     0.810750000000     0.009870000000     0.413630000000     0          
Zr669    Zr     0.764340000000     0.055450000000     0.286310000000     0          
C670     C      0.656200000000     0.952700000000     0.441300000000     0          
C671     C      0.625450000000     0.912900000000     0.524500000000     0          
H672     H      0.646710000000     0.906480000000     0.542740000000     0          
C673     C      0.623600000000     0.937100000000     0.470700000000     0          
C674     C      0.591830000000     0.946700000000     0.443500000000     0          
H675     H      0.590590000000     0.962930000000     0.407420000000     0          
C676     C      0.561910000000     0.932100000000     0.470200000000     0          
H677     H      0.540650000000     0.938570000000     0.451980000000     0          
C678     C      0.563770000000     0.907900000000     0.524100000000     0          
C679     C      0.595540000000     0.898300000000     0.551300000000     0          
H680     H      0.596780000000     0.882120000000     0.587310000000     0          
C681     C      0.531900000000     0.894600000000     0.556700000000     0          
C682     C      0.505600000000     0.861000000000     0.637200000000     0          
C683     C      0.474200000000     0.889400000000     0.555400000000     0          
C684     C      0.475820000000     0.830900000000     0.735400000000     0          
H685     H      0.454850000000     0.835670000000     0.713950000000     0          
C686     C      0.476750000000     0.812200000000     0.798000000000     0          
H687     H      0.456410000000     0.804560000000     0.818500000000     0          
C688     C      0.508080000000     0.805000000000     0.830100000000     0          
C689     C      0.538480000000     0.816500000000     0.799500000000     0          
H690     H      0.559450000000     0.811700000000     0.821000000000     0          
C691     C      0.537550000000     0.835100000000     0.736900000000     0          
H692     H      0.557890000000     0.842810000000     0.716450000000     0          
C693     C      0.506220000000     0.842300000000     0.704800000000     0          
C694     C      0.509000000000     0.788100000000     0.901100000000     0          
C695     C      0.440870000000     0.899600000000     0.524100000000     0          
C696     C      0.440400000000     0.922200000000     0.467200000000     0          
H697     H      0.460940000000     0.930050000000     0.447990000000     0          
C698     C      0.409220000000     0.933100000000     0.439200000000     0          
H699     H      0.408900000000     0.948210000000     0.401150000000     0          
C700     C      0.378520000000     0.921300000000     0.467900000000     0          
C701     C      0.378990000000     0.898700000000     0.524800000000     0          
H702     H      0.358450000000     0.890820000000     0.544040000000     0          
C703     C      0.410170000000     0.887800000000     0.552800000000     0          
H704     H      0.410480000000     0.872660000000     0.590880000000     0          
C705     C      0.344800000000     0.934600000000     0.440800000000     0          
N706     N      0.535100000000     0.874300000000     0.613600000000     0          
N707     N      0.474100000000     0.869800000000     0.611200000000     0          
N708     N      0.503000000000     0.903700000000     0.527600000000     0          
O709     O      0.683090000000     0.945800000000     0.470800000000     0          
O710     O      0.652170000000     0.973900000000     0.390600000000     0          
O711     O      0.537900000000     0.782700000000     0.927800000000     0          
O712     O      0.479730000000     0.780300000000     0.928900000000     0          
O713     O      0.318160000000     0.924970000000     0.471100000000     0          
O714     O      0.347530000000     0.955500000000     0.389600000000     0          
O715     O      0.738000000000     0.908700000000     0.430200000000     0          
O716     O      0.761000000000     0.111000000000     0.317500000000     0          
O717     O      0.780100000000     0.966200000000     0.395600000000     0          
O718     O      0.767100000000     0.011300000000     0.484400000000     0          
O719     O      0.794100000000     0.010100000000     0.304100000000     0          
O720     O      0.720400000000     0.055400000000     0.353500000000     0          
O721     O      0.735600000000     0.416400000000     0.041800000000     0          
C722     C      0.753000000000     0.182500000000     0.313100000000     0          
H723     H      0.755220000000     0.170530000000     0.270780000000     0          
N724     N      0.744100000000     0.289600000000     0.312700000000     0          
C725     C      0.752800000000     0.218100000000     0.311100000000     0          
H726     H      0.754560000000     0.229700000000     0.268330000000     0          
C727     C      0.740500000000     0.325300000000     0.315100000000     0          
O728     O      0.717400000000     0.454800000000     0.127100000000     0          
C729     C      0.727300000000     0.426200000000     0.102300000000     0          
C730     C      0.715400000000     0.406200000000     0.225000000000     0          
H731     H      0.703660000000     0.426660000000     0.232700000000     0          
C732     C      0.721500000000     0.383900000000     0.281000000000     0          
H733     H      0.713810000000     0.389370000000     0.326080000000     0          
C734     C      0.739100000000     0.353300000000     0.269500000000     0          
C735     C      0.750600000000     0.345000000000     0.202000000000     0          
H736     H      0.762430000000     0.324560000000     0.194350000000     0          
C737     C      0.744600000000     0.367400000000     0.146100000000     0          
H738     H      0.752280000000     0.361850000000     0.100970000000     0          
C739     C      0.727000000000     0.398000000000     0.157600000000     0          
H740     H      0.740530000000     0.846250000000     0.418690000000     0          
H741     H      0.736330000000     0.846250000000     0.336290000000     0          
H742     H      0.773140000000     0.846250000000     0.370020000000     0          
Zr743    Zr     0.763630000000     0.535340000000     0.964050000000     0          
Zr744    Zr     0.689250000000     0.490130000000     0.913630000000     0          
Zr745    Zr     0.735660000000     0.444550000000     0.786310000000     0          
C746     C      0.843800000000     0.547300000000     0.941300000000     0          
C747     C      0.874550000000     0.587100000000     0.024500000000     0          
H748     H      0.853290000000     0.593520000000     0.042740000000     0          
C749     C      0.876400000000     0.562900000000     0.970700000000     0          
C750     C      0.908170000000     0.553300000000     0.943500000000     0          
H751     H      0.909410000000     0.537070000000     0.907420000000     0          
C752     C      0.938090000000     0.567900000000     0.970200000000     0          
H753     H      0.959350000000     0.561430000000     0.951980000000     0          
C754     C      0.936230000000     0.592100000000     0.024100000000     0          
C755     C      0.904460000000     0.601700000000     0.051300000000     0          
H756     H      0.903220000000     0.617880000000     0.087310000000     0          
C757     C      0.968100000000     0.605400000000     0.056700000000     0          
C758     C      0.994400000000     0.639000000000     0.137200000000     0          
C759     C      0.025800000000     0.610600000000     0.055400000000     0          
C760     C      0.024180000000     0.669100000000     0.235400000000     0          
H761     H      0.045150000000     0.664330000000     0.213950000000     0          
C762     C      0.023250000000     0.687800000000     0.298000000000     0          
H763     H      0.043590000000     0.695440000000     0.318500000000     0          
C764     C      0.991920000000     0.695000000000     0.330100000000     0          
C765     C      0.961520000000     0.683500000000     0.299500000000     0          
H766     H      0.940550000000     0.688300000000     0.321000000000     0          
C767     C      0.962450000000     0.664900000000     0.236900000000     0          
H768     H      0.942110000000     0.657190000000     0.216450000000     0          
C769     C      0.993780000000     0.657700000000     0.204800000000     0          
C770     C      0.991000000000     0.711900000000     0.401100000000     0          
C771     C      0.059130000000     0.600400000000     0.024100000000     0          
C772     C      0.059600000000     0.577800000000     0.967200000000     0          
H773     H      0.039060000000     0.569950000000     0.947990000000     0          
C774     C      0.090780000000     0.566900000000     0.939200000000     0          
H775     H      0.091100000000     0.551790000000     0.901150000000     0          
C776     C      0.121480000000     0.578700000000     0.967900000000     0          
C777     C      0.121010000000     0.601300000000     0.024800000000     0          
H778     H      0.141550000000     0.609180000000     0.044040000000     0          
C779     C      0.089830000000     0.612200000000     0.052800000000     0          
H780     H      0.089520000000     0.627340000000     0.090880000000     0          
C781     C      0.155200000000     0.565400000000     0.940800000000     0          
N782     N      0.964900000000     0.625700000000     0.113600000000     0          
N783     N      0.025900000000     0.630200000000     0.111200000000     0          
N784     N      0.997000000000     0.596300000000     0.027600000000     0          
O785     O      0.816910000000     0.554200000000     0.970800000000     0          
O786     O      0.847830000000     0.526100000000     0.890600000000     0          
O787     O      0.962100000000     0.717300000000     0.427800000000     0          
O788     O      0.020270000000     0.719700000000     0.428900000000     0          
O789     O      0.181840000000     0.575030000000     0.971100000000     0          
O790     O      0.152470000000     0.544500000000     0.889600000000     0          
O791     O      0.762000000000     0.591300000000     0.930200000000     0          
O792     O      0.739000000000     0.389000000000     0.817500000000     0          
O793     O      0.719900000000     0.533800000000     0.895600000000     0          
O794     O      0.732900000000     0.488700000000     0.984400000000     0          
O795     O      0.705900000000     0.489900000000     0.804100000000     0          
O796     O      0.779600000000     0.444600000000     0.853500000000     0          
O797     O      0.764400000000     0.083600000000     0.541800000000     0          
C798     C      0.747000000000     0.317500000000     0.813100000000     0          
H799     H      0.744780000000     0.329470000000     0.770780000000     0          
N800     N      0.755900000000     0.210400000000     0.812700000000     0          
C801     C      0.747200000000     0.281900000000     0.811100000000     0          
H802     H      0.745440000000     0.270300000000     0.768330000000     0          
C803     C      0.759500000000     0.174700000000     0.815100000000     0          
O804     O      0.804800000000     0.118800000000     0.507400000000     0          
C805     C      0.783200000000     0.109000000000     0.551400000000     0          
C806     C      0.787700000000     0.160400000000     0.628500000000     0          
H807     H      0.799360000000     0.171040000000     0.591540000000     0          
C808     C      0.781400000000     0.178200000000     0.690800000000     0          
H809     H      0.788830000000     0.200830000000     0.695520000000     0          
C810     C      0.764100000000     0.162300000000     0.745900000000     0          
C811     C      0.753000000000     0.128500000000     0.738800000000     0          
H812     H      0.741370000000     0.117790000000     0.775740000000     0          
C813     C      0.759300000000     0.110600000000     0.676500000000     0          
H814     H      0.751900000000     0.088000000000     0.671760000000     0          
C815     C      0.776700000000     0.126600000000     0.621300000000     0          
H816     H      0.759470000000     0.653750000000     0.918690000000     0          
H817     H      0.763670000000     0.653750000000     0.836290000000     0          
H818     H      0.726860000000     0.653750000000     0.870020000000     0          
Zr819    Zr     0.263630000000     0.035340000000     0.464050000000     0          
Zr820    Zr     0.189250000000     0.990130000000     0.413630000000     0          
Zr821    Zr     0.235660000000     0.944550000000     0.286310000000     0          
C822     C      0.343800000000     0.047300000000     0.441300000000     0          
C823     C      0.374550000000     0.087100000000     0.524500000000     0          
H824     H      0.353290000000     0.093520000000     0.542740000000     0          
C825     C      0.376400000000     0.062900000000     0.470700000000     0          
C826     C      0.408170000000     0.053300000000     0.443500000000     0          
H827     H      0.409410000000     0.037070000000     0.407420000000     0          
C828     C      0.438090000000     0.067900000000     0.470200000000     0          
H829     H      0.459350000000     0.061430000000     0.451980000000     0          
C830     C      0.436230000000     0.092100000000     0.524100000000     0          
C831     C      0.404460000000     0.101700000000     0.551300000000     0          
H832     H      0.403220000000     0.117880000000     0.587310000000     0          
C833     C      0.468100000000     0.105400000000     0.556700000000     0          
C834     C      0.494400000000     0.139000000000     0.637200000000     0          
C835     C      0.525800000000     0.110600000000     0.555400000000     0          
C836     C      0.524180000000     0.169100000000     0.735400000000     0          
H837     H      0.545150000000     0.164330000000     0.713950000000     0          
C838     C      0.523250000000     0.187800000000     0.798000000000     0          
H839     H      0.543590000000     0.195440000000     0.818500000000     0          
C840     C      0.491920000000     0.195000000000     0.830100000000     0          
C841     C      0.461520000000     0.183500000000     0.799500000000     0          
H842     H      0.440550000000     0.188300000000     0.821000000000     0          
C843     C      0.462450000000     0.164900000000     0.736900000000     0          
H844     H      0.442110000000     0.157190000000     0.716450000000     0          
C845     C      0.493780000000     0.157700000000     0.704800000000     0          
C846     C      0.491000000000     0.211900000000     0.901100000000     0          
C847     C      0.559130000000     0.100400000000     0.524100000000     0          
C848     C      0.559600000000     0.077800000000     0.467200000000     0          
H849     H      0.539060000000     0.069950000000     0.447990000000     0          
C850     C      0.590780000000     0.066900000000     0.439200000000     0          
H851     H      0.591100000000     0.051790000000     0.401150000000     0          
C852     C      0.621480000000     0.078700000000     0.467900000000     0          
C853     C      0.621010000000     0.101300000000     0.524800000000     0          
H854     H      0.641550000000     0.109180000000     0.544040000000     0          
C855     C      0.589830000000     0.112200000000     0.552800000000     0          
H856     H      0.589520000000     0.127340000000     0.590880000000     0          
C857     C      0.655200000000     0.065400000000     0.440800000000     0          
N858     N      0.464900000000     0.125700000000     0.613600000000     0          
N859     N      0.525900000000     0.130200000000     0.611200000000     0          
N860     N      0.497000000000     0.096300000000     0.527600000000     0          
O861     O      0.316910000000     0.054200000000     0.470800000000     0          
O862     O      0.347830000000     0.026100000000     0.390600000000     0          
O863     O      0.462100000000     0.217300000000     0.927800000000     0          
O864     O      0.520270000000     0.219700000000     0.928900000000     0          
O865     O      0.681840000000     0.075030000000     0.471100000000     0          
O866     O      0.652470000000     0.044500000000     0.389600000000     0          
O867     O      0.262000000000     0.091300000000     0.430200000000     0          
O868     O      0.239000000000     0.889000000000     0.317500000000     0          
O869     O      0.219900000000     0.033800000000     0.395600000000     0          
O870     O      0.232900000000     0.988700000000     0.484400000000     0          
O871     O      0.205900000000     0.989900000000     0.304100000000     0          
O872     O      0.279600000000     0.944600000000     0.353500000000     0          
O873     O      0.264400000000     0.583600000000     0.041800000000     0          
C874     C      0.247000000000     0.817500000000     0.313100000000     0          
H875     H      0.244780000000     0.829470000000     0.270780000000     0          
N876     N      0.255900000000     0.710400000000     0.312700000000     0          
C877     C      0.247200000000     0.781900000000     0.311100000000     0          
H878     H      0.245440000000     0.770300000000     0.268330000000     0          
C879     C      0.259500000000     0.674700000000     0.315100000000     0          
O880     O      0.282600000000     0.545200000000     0.127100000000     0          
C881     C      0.272700000000     0.573800000000     0.102300000000     0          
C882     C      0.284600000000     0.593800000000     0.225000000000     0          
H883     H      0.296340000000     0.573340000000     0.232700000000     0          
C884     C      0.278500000000     0.616100000000     0.281000000000     0          
H885     H      0.286190000000     0.610630000000     0.326080000000     0          
C886     C      0.260900000000     0.646700000000     0.269500000000     0          
C887     C      0.249400000000     0.655000000000     0.202000000000     0          
H888     H      0.237570000000     0.675440000000     0.194350000000     0          
C889     C      0.255400000000     0.632600000000     0.146100000000     0          
H890     H      0.247720000000     0.638150000000     0.100970000000     0          
C891     C      0.273000000000     0.602000000000     0.157600000000     0          
H892     H      0.259470000000     0.153750000000     0.418690000000     0          
H893     H      0.263670000000     0.153750000000     0.336290000000     0          
H894     H      0.226860000000     0.153750000000     0.370020000000     0          
Zr895    Zr     0.035340000000     0.736370000000     0.535950000000     0          
Zr896    Zr     0.990130000000     0.810750000000     0.586370000000     0          
Zr897    Zr     0.944550000000     0.764340000000     0.713690000000     0          
C898     C      0.047300000000     0.656200000000     0.558700000000     0          
C899     C      0.087100000000     0.625450000000     0.475500000000     0          
H900     H      0.093520000000     0.646710000000     0.457260000000     0          
C901     C      0.062900000000     0.623600000000     0.529300000000     0          
C902     C      0.053300000000     0.591830000000     0.556500000000     0          
H903     H      0.037070000000     0.590590000000     0.592580000000     0          
C904     C      0.067900000000     0.561910000000     0.529800000000     0          
H905     H      0.061430000000     0.540650000000     0.548020000000     0          
C906     C      0.092100000000     0.563770000000     0.475900000000     0          
C907     C      0.101700000000     0.595540000000     0.448700000000     0          
H908     H      0.117880000000     0.596780000000     0.412690000000     0          
C909     C      0.105400000000     0.531900000000     0.443300000000     0          
C910     C      0.139000000000     0.505600000000     0.362800000000     0          
C911     C      0.110600000000     0.474200000000     0.444600000000     0          
C912     C      0.169100000000     0.475820000000     0.264600000000     0          
H913     H      0.164330000000     0.454850000000     0.286050000000     0          
C914     C      0.187800000000     0.476750000000     0.202000000000     0          
H915     H      0.195440000000     0.456410000000     0.181500000000     0          
C916     C      0.195000000000     0.508080000000     0.169900000000     0          
C917     C      0.183500000000     0.538480000000     0.200500000000     0          
H918     H      0.188300000000     0.559450000000     0.179000000000     0          
C919     C      0.164900000000     0.537550000000     0.263100000000     0          
H920     H      0.157190000000     0.557890000000     0.283550000000     0          
C921     C      0.157700000000     0.506220000000     0.295200000000     0          
C922     C      0.211900000000     0.509000000000     0.098900000000     0          
C923     C      0.100400000000     0.440870000000     0.475900000000     0          
C924     C      0.077800000000     0.440400000000     0.532800000000     0          
H925     H      0.069950000000     0.460940000000     0.552010000000     0          
C926     C      0.066900000000     0.409220000000     0.560800000000     0          
H927     H      0.051790000000     0.408900000000     0.598850000000     0          
C928     C      0.078700000000     0.378520000000     0.532100000000     0          
C929     C      0.101300000000     0.378990000000     0.475200000000     0          
H930     H      0.109180000000     0.358450000000     0.455960000000     0          
C931     C      0.112200000000     0.410170000000     0.447200000000     0          
H932     H      0.127340000000     0.410480000000     0.409120000000     0          
C933     C      0.065400000000     0.344800000000     0.559200000000     0          
N934     N      0.125700000000     0.535100000000     0.386400000000     0          
N935     N      0.130200000000     0.474100000000     0.388800000000     0          
N936     N      0.096300000000     0.503000000000     0.472400000000     0          
O937     O      0.054200000000     0.683090000000     0.529200000000     0          
O938     O      0.026100000000     0.652170000000     0.609400000000     0          
O939     O      0.217300000000     0.537900000000     0.072200000000     0          
O940     O      0.219700000000     0.479730000000     0.071100000000     0          
O941     O      0.075030000000     0.318160000000     0.528900000000     0          
O942     O      0.044500000000     0.347530000000     0.610400000000     0          
O943     O      0.091300000000     0.738000000000     0.569800000000     0          
O944     O      0.889000000000     0.761000000000     0.682500000000     0          
O945     O      0.033800000000     0.780100000000     0.604400000000     0          
O946     O      0.988700000000     0.767100000000     0.515600000000     0          
O947     O      0.989900000000     0.794100000000     0.695900000000     0          
O948     O      0.944600000000     0.720400000000     0.646500000000     0          
O949     O      0.583600000000     0.735600000000     0.958200000000     0          
C950     C      0.817500000000     0.753000000000     0.686900000000     0          
H951     H      0.829470000000     0.755220000000     0.729220000000     0          
N952     N      0.710400000000     0.744100000000     0.687300000000     0          
C953     C      0.781900000000     0.752800000000     0.688900000000     0          
H954     H      0.770300000000     0.754560000000     0.731670000000     0          
C955     C      0.674700000000     0.740500000000     0.684900000000     0          
C956     C      0.616100000000     0.721500000000     0.719000000000     0          
O957     O      0.618800000000     0.695200000000     0.992600000000     0          
C958     C      0.609000000000     0.716800000000     0.948600000000     0          
C959     C      0.660400000000     0.712300000000     0.871500000000     0          
H960     H      0.671040000000     0.700640000000     0.908460000000     0          
C961     C      0.678200000000     0.718600000000     0.809200000000     0          
H962     H      0.700830000000     0.711170000000     0.804480000000     0          
C963     C      0.662300000000     0.735900000000     0.754100000000     0          
C964     C      0.628500000000     0.747000000000     0.761200000000     0          
H965     H      0.617790000000     0.758630000000     0.724260000000     0          
C966     C      0.610600000000     0.740700000000     0.823500000000     0          
H967     H      0.588000000000     0.748100000000     0.828240000000     0          
C968     C      0.626600000000     0.723300000000     0.878700000000     0          
Zr969    Zr     0.535340000000     0.236370000000     0.035950000000     0          
Zr970    Zr     0.490130000000     0.310750000000     0.086370000000     0          
Zr971    Zr     0.444550000000     0.264340000000     0.213690000000     0          
C972     C      0.547300000000     0.156200000000     0.058700000000     0          
C973     C      0.587100000000     0.125450000000     0.975500000000     0          
H974     H      0.593520000000     0.146710000000     0.957260000000     0          
C975     C      0.562900000000     0.123600000000     0.029300000000     0          
C976     C      0.553300000000     0.091830000000     0.056500000000     0          
H977     H      0.537070000000     0.090590000000     0.092580000000     0          
C978     C      0.567900000000     0.061910000000     0.029800000000     0          
H979     H      0.561430000000     0.040650000000     0.048020000000     0          
C980     C      0.592100000000     0.063770000000     0.975900000000     0          
C981     C      0.601700000000     0.095540000000     0.948700000000     0          
H982     H      0.617880000000     0.096780000000     0.912690000000     0          
C983     C      0.605400000000     0.031900000000     0.943300000000     0          
C984     C      0.639000000000     0.005600000000     0.862800000000     0          
C985     C      0.610600000000     0.974200000000     0.944600000000     0          
C986     C      0.669100000000     0.975820000000     0.764600000000     0          
H987     H      0.664330000000     0.954850000000     0.786050000000     0          
C988     C      0.687800000000     0.976750000000     0.702000000000     0          
H989     H      0.695440000000     0.956410000000     0.681500000000     0          
C990     C      0.695000000000     0.008080000000     0.669900000000     0          
C991     C      0.683500000000     0.038480000000     0.700500000000     0          
H992     H      0.688300000000     0.059450000000     0.679000000000     0          
C993     C      0.664900000000     0.037550000000     0.763100000000     0          
H994     H      0.657190000000     0.057890000000     0.783550000000     0          
C995     C      0.657700000000     0.006220000000     0.795200000000     0          
C996     C      0.711900000000     0.009000000000     0.598900000000     0          
C997     C      0.600400000000     0.940870000000     0.975900000000     0          
C998     C      0.577800000000     0.940400000000     0.032800000000     0          
H999     H      0.569950000000     0.960940000000     0.052010000000     0          
C1000    C      0.566900000000     0.909220000000     0.060800000000     0          
H1001    H      0.551790000000     0.908900000000     0.098850000000     0          
C1002    C      0.578700000000     0.878520000000     0.032100000000     0          
C1003    C      0.601300000000     0.878990000000     0.975200000000     0          
H1004    H      0.609180000000     0.858450000000     0.955960000000     0          
C1005    C      0.612200000000     0.910170000000     0.947200000000     0          
H1006    H      0.627340000000     0.910480000000     0.909120000000     0          
C1007    C      0.565400000000     0.844800000000     0.059200000000     0          
N1008    N      0.625700000000     0.035100000000     0.886400000000     0          
N1009    N      0.630200000000     0.974100000000     0.888800000000     0          
N1010    N      0.596300000000     0.003000000000     0.972400000000     0          
O1011    O      0.554200000000     0.183090000000     0.029200000000     0          
O1012    O      0.526100000000     0.152170000000     0.109400000000     0          
O1013    O      0.717300000000     0.037900000000     0.572200000000     0          
O1014    O      0.719700000000     0.979730000000     0.571100000000     0          
O1015    O      0.575030000000     0.818160000000     0.028900000000     0          
O1016    O      0.544500000000     0.847530000000     0.110400000000     0          
O1017    O      0.591300000000     0.238000000000     0.069800000000     0          
O1018    O      0.389000000000     0.261000000000     0.182500000000     0          
O1019    O      0.533800000000     0.280100000000     0.104400000000     0          
O1020    O      0.488700000000     0.267100000000     0.015600000000     0          
O1021    O      0.489900000000     0.294100000000     0.195900000000     0          
O1022    O      0.444600000000     0.220400000000     0.146500000000     0          
O1023    O      0.083600000000     0.235600000000     0.458200000000     0          
C1024    C      0.317500000000     0.253000000000     0.186900000000     0          
H1025    H      0.329470000000     0.255220000000     0.229220000000     0          
N1026    N      0.210400000000     0.244100000000     0.187300000000     0          
C1027    C      0.281900000000     0.252800000000     0.188900000000     0          
H1028    H      0.270300000000     0.254560000000     0.231670000000     0          
C1029    C      0.174700000000     0.240500000000     0.184900000000     0          
O1030    O      0.045200000000     0.217400000000     0.372900000000     0          
C1031    C      0.073800000000     0.227300000000     0.397700000000     0          
C1032    C      0.093800000000     0.215400000000     0.275000000000     0          
H1033    H      0.073340000000     0.203660000000     0.267300000000     0          
C1034    C      0.116100000000     0.221500000000     0.219000000000     0          
H1035    H      0.110630000000     0.213810000000     0.173920000000     0          
C1036    C      0.146700000000     0.239100000000     0.230500000000     0          
C1037    C      0.155000000000     0.250600000000     0.298000000000     0          
H1038    H      0.175440000000     0.262430000000     0.305650000000     0          
C1039    C      0.132600000000     0.244600000000     0.353900000000     0          
H1040    H      0.138150000000     0.252280000000     0.399030000000     0          
C1041    C      0.102000000000     0.227000000000     0.342400000000     0          
H1042    H      0.653750000000     0.240530000000     0.081310000000     0          
H1043    H      0.653750000000     0.236330000000     0.163710000000     0          
H1044    H      0.653750000000     0.273140000000     0.129980000000     0          
Zr1045   Zr     0.964660000000     0.263630000000     0.535950000000     0          
Zr1046   Zr     0.009870000000     0.189250000000     0.586370000000     0          
Zr1047   Zr     0.055450000000     0.235660000000     0.713690000000     0          
C1048    C      0.952700000000     0.343800000000     0.558700000000     0          
C1049    C      0.912900000000     0.374550000000     0.475500000000     0          
H1050    H      0.906480000000     0.353290000000     0.457260000000     0          
C1051    C      0.937100000000     0.376400000000     0.529300000000     0          
C1052    C      0.946700000000     0.408170000000     0.556500000000     0          
H1053    H      0.962930000000     0.409410000000     0.592580000000     0          
C1054    C      0.932100000000     0.438090000000     0.529800000000     0          
H1055    H      0.938570000000     0.459350000000     0.548020000000     0          
C1056    C      0.907900000000     0.436230000000     0.475900000000     0          
C1057    C      0.898300000000     0.404460000000     0.448700000000     0          
H1058    H      0.882120000000     0.403220000000     0.412690000000     0          
C1059    C      0.894600000000     0.468100000000     0.443300000000     0          
C1060    C      0.861000000000     0.494400000000     0.362800000000     0          
C1061    C      0.889400000000     0.525800000000     0.444600000000     0          
C1062    C      0.830900000000     0.524180000000     0.264600000000     0          
H1063    H      0.835670000000     0.545150000000     0.286050000000     0          
C1064    C      0.812200000000     0.523250000000     0.202000000000     0          
H1065    H      0.804560000000     0.543590000000     0.181500000000     0          
C1066    C      0.805000000000     0.491920000000     0.169900000000     0          
C1067    C      0.816500000000     0.461520000000     0.200500000000     0          
H1068    H      0.811700000000     0.440550000000     0.179000000000     0          
C1069    C      0.835100000000     0.462450000000     0.263100000000     0          
H1070    H      0.842810000000     0.442110000000     0.283550000000     0          
C1071    C      0.842300000000     0.493780000000     0.295200000000     0          
C1072    C      0.788100000000     0.491000000000     0.098900000000     0          
C1073    C      0.899600000000     0.559130000000     0.475900000000     0          
C1074    C      0.922200000000     0.559600000000     0.532800000000     0          
H1075    H      0.930050000000     0.539060000000     0.552010000000     0          
C1076    C      0.933100000000     0.590780000000     0.560800000000     0          
H1077    H      0.948210000000     0.591100000000     0.598850000000     0          
C1078    C      0.921300000000     0.621480000000     0.532100000000     0          
C1079    C      0.898700000000     0.621010000000     0.475200000000     0          
H1080    H      0.890820000000     0.641550000000     0.455960000000     0          
C1081    C      0.887800000000     0.589830000000     0.447200000000     0          
H1082    H      0.872660000000     0.589520000000     0.409120000000     0          
C1083    C      0.934600000000     0.655200000000     0.559200000000     0          
N1084    N      0.874300000000     0.464900000000     0.386400000000     0          
N1085    N      0.869800000000     0.525900000000     0.388800000000     0          
N1086    N      0.903700000000     0.497000000000     0.472400000000     0          
O1087    O      0.945800000000     0.316910000000     0.529200000000     0          
O1088    O      0.973900000000     0.347830000000     0.609400000000     0          
O1089    O      0.782700000000     0.462100000000     0.072200000000     0          
O1090    O      0.780300000000     0.520270000000     0.071100000000     0          
O1091    O      0.924970000000     0.681840000000     0.528900000000     0          
O1092    O      0.955500000000     0.652470000000     0.610400000000     0          
O1093    O      0.908700000000     0.262000000000     0.569800000000     0          
O1094    O      0.111000000000     0.239000000000     0.682500000000     0          
O1095    O      0.966200000000     0.219900000000     0.604400000000     0          
O1096    O      0.011300000000     0.232900000000     0.515600000000     0          
O1097    O      0.010100000000     0.205900000000     0.695900000000     0          
O1098    O      0.055400000000     0.279600000000     0.646500000000     0          
O1099    O      0.416400000000     0.264400000000     0.958200000000     0          
C1100    C      0.182500000000     0.247000000000     0.686900000000     0          
H1101    H      0.170530000000     0.244780000000     0.729220000000     0          
N1102    N      0.289600000000     0.255900000000     0.687300000000     0          
C1103    C      0.218100000000     0.247200000000     0.688900000000     0          
H1104    H      0.229700000000     0.245440000000     0.731670000000     0          
C1105    C      0.325300000000     0.259500000000     0.684900000000     0          
O1106    O      0.454800000000     0.282600000000     0.872900000000     0          
C1107    C      0.426200000000     0.272700000000     0.897700000000     0          
C1108    C      0.406200000000     0.284600000000     0.775000000000     0          
H1109    H      0.426660000000     0.296340000000     0.767300000000     0          
C1110    C      0.383900000000     0.278500000000     0.719000000000     0          
H1111    H      0.389370000000     0.286190000000     0.673920000000     0          
C1112    C      0.353300000000     0.260900000000     0.730500000000     0          
C1113    C      0.345000000000     0.249400000000     0.798000000000     0          
H1114    H      0.324560000000     0.237570000000     0.805650000000     0          
C1115    C      0.367400000000     0.255400000000     0.853900000000     0          
H1116    H      0.361850000000     0.247720000000     0.899030000000     0          
C1117    C      0.398000000000     0.273000000000     0.842400000000     0          
H1118    H      0.846250000000     0.259470000000     0.581310000000     0          
H1119    H      0.846250000000     0.263670000000     0.663710000000     0          
H1120    H      0.846250000000     0.226860000000     0.629980000000     0          
Zr1121   Zr     0.464660000000     0.763630000000     0.035950000000     0          
Zr1122   Zr     0.509870000000     0.689250000000     0.086370000000     0          
Zr1123   Zr     0.555450000000     0.735660000000     0.213690000000     0          
C1124    C      0.452700000000     0.843800000000     0.058700000000     0          
C1125    C      0.412900000000     0.874550000000     0.975500000000     0          
H1126    H      0.406480000000     0.853290000000     0.957260000000     0          
C1127    C      0.437100000000     0.876400000000     0.029300000000     0          
C1128    C      0.446700000000     0.908170000000     0.056500000000     0          
H1129    H      0.462930000000     0.909410000000     0.092580000000     0          
C1130    C      0.432100000000     0.938090000000     0.029800000000     0          
H1131    H      0.438570000000     0.959350000000     0.048020000000     0          
C1132    C      0.407900000000     0.936230000000     0.975900000000     0          
C1133    C      0.398300000000     0.904460000000     0.948700000000     0          
H1134    H      0.382120000000     0.903220000000     0.912690000000     0          
C1135    C      0.394600000000     0.968100000000     0.943300000000     0          
C1136    C      0.361000000000     0.994400000000     0.862800000000     0          
C1137    C      0.389400000000     0.025800000000     0.944600000000     0          
C1138    C      0.330900000000     0.024180000000     0.764600000000     0          
H1139    H      0.335670000000     0.045150000000     0.786050000000     0          
C1140    C      0.312200000000     0.023250000000     0.702000000000     0          
H1141    H      0.304560000000     0.043590000000     0.681500000000     0          
C1142    C      0.305000000000     0.991920000000     0.669900000000     0          
C1143    C      0.316500000000     0.961520000000     0.700500000000     0          
H1144    H      0.311700000000     0.940550000000     0.679000000000     0          
C1145    C      0.335100000000     0.962450000000     0.763100000000     0          
H1146    H      0.342810000000     0.942110000000     0.783550000000     0          
C1147    C      0.342300000000     0.993780000000     0.795200000000     0          
C1148    C      0.288100000000     0.991000000000     0.598900000000     0          
C1149    C      0.399600000000     0.059130000000     0.975900000000     0          
C1150    C      0.422200000000     0.059600000000     0.032800000000     0          
H1151    H      0.430050000000     0.039060000000     0.052010000000     0          
C1152    C      0.433100000000     0.090780000000     0.060800000000     0          
H1153    H      0.448210000000     0.091100000000     0.098850000000     0          
C1154    C      0.421300000000     0.121480000000     0.032100000000     0          
C1155    C      0.398700000000     0.121010000000     0.975200000000     0          
H1156    H      0.390820000000     0.141550000000     0.955960000000     0          
C1157    C      0.387800000000     0.089830000000     0.947200000000     0          
H1158    H      0.372660000000     0.089520000000     0.909120000000     0          
C1159    C      0.434600000000     0.155200000000     0.059200000000     0          
N1160    N      0.374300000000     0.964900000000     0.886400000000     0          
N1161    N      0.369800000000     0.025900000000     0.888800000000     0          
N1162    N      0.403700000000     0.997000000000     0.972400000000     0          
O1163    O      0.445800000000     0.816910000000     0.029200000000     0          
O1164    O      0.473900000000     0.847830000000     0.109400000000     0          
O1165    O      0.282700000000     0.962100000000     0.572200000000     0          
O1166    O      0.280300000000     0.020270000000     0.571100000000     0          
O1167    O      0.424970000000     0.181840000000     0.028900000000     0          
O1168    O      0.455500000000     0.152470000000     0.110400000000     0          
O1169    O      0.408700000000     0.762000000000     0.069800000000     0          
O1170    O      0.611000000000     0.739000000000     0.182500000000     0          
O1171    O      0.466200000000     0.719900000000     0.104400000000     0          
O1172    O      0.511300000000     0.732900000000     0.015600000000     0          
O1173    O      0.510100000000     0.705900000000     0.195900000000     0          
O1174    O      0.555400000000     0.779600000000     0.146500000000     0          
O1175    O      0.916400000000     0.764400000000     0.458200000000     0          
C1176    C      0.682500000000     0.747000000000     0.186900000000     0          
H1177    H      0.670530000000     0.744780000000     0.229220000000     0          
N1178    N      0.789600000000     0.755900000000     0.187300000000     0          
C1179    C      0.718100000000     0.747200000000     0.188900000000     0          
H1180    H      0.729700000000     0.745440000000     0.231670000000     0          
C1181    C      0.825300000000     0.759500000000     0.184900000000     0          
O1182    O      0.881200000000     0.804800000000     0.492600000000     0          
C1183    C      0.891000000000     0.783200000000     0.448600000000     0          
C1184    C      0.839600000000     0.787700000000     0.371500000000     0          
H1185    H      0.828960000000     0.799360000000     0.408460000000     0          
C1186    C      0.821800000000     0.781400000000     0.309200000000     0          
H1187    H      0.799170000000     0.788830000000     0.304480000000     0          
C1188    C      0.837700000000     0.764100000000     0.254100000000     0          
C1189    C      0.871500000000     0.753000000000     0.261200000000     0          
H1190    H      0.882210000000     0.741370000000     0.224260000000     0          
C1191    C      0.889400000000     0.759300000000     0.323500000000     0          
H1192    H      0.912000000000     0.751900000000     0.328240000000     0          
C1193    C      0.873400000000     0.776700000000     0.378700000000     0          
C1194    C      0.250000000000     0.394000000000     0.875000000000     0          
C1195    C      0.250000000000     0.354500000000     0.875000000000     0          
C1196    C      0.250000000000     0.626700000000     0.875000000000     0          
C1197    C      0.250000000000     0.664100000000     0.875000000000     0          
C1198    C      0.250000000000     0.771900000000     0.875000000000     0          
C1199    C      0.250000000000     0.736200000000     0.875000000000     0          
N1200    N      0.250000000000     0.843300000000     0.875000000000     0          
C1201    C      0.750000000000     0.894000000000     0.375000000000     0          
C1202    C      0.750000000000     0.854500000000     0.375000000000     0          
C1203    C      0.750000000000     0.126700000000     0.375000000000     0          
C1204    C      0.750000000000     0.164100000000     0.375000000000     0          
C1205    C      0.750000000000     0.271900000000     0.375000000000     0          
C1206    C      0.750000000000     0.236200000000     0.375000000000     0          
N1207    N      0.750000000000     0.343300000000     0.375000000000     0          
C1208    C      0.750000000000     0.606000000000     0.875000000000     0          
C1209    C      0.750000000000     0.645500000000     0.875000000000     0          
C1210    C      0.750000000000     0.373300000000     0.875000000000     0          
C1211    C      0.750000000000     0.335900000000     0.875000000000     0          
C1212    C      0.750000000000     0.228100000000     0.875000000000     0          
C1213    C      0.750000000000     0.263800000000     0.875000000000     0          
N1214    N      0.750000000000     0.156700000000     0.875000000000     0          
C1215    C      0.250000000000     0.106000000000     0.375000000000     0          
C1216    C      0.250000000000     0.145500000000     0.375000000000     0          
C1217    C      0.250000000000     0.873300000000     0.375000000000     0          
C1218    C      0.250000000000     0.835900000000     0.375000000000     0          
C1219    C      0.250000000000     0.728100000000     0.375000000000     0          
C1220    C      0.250000000000     0.763800000000     0.375000000000     0          
N1221    N      0.250000000000     0.656700000000     0.375000000000     0          
C1222    C      0.394000000000     0.750000000000     0.125000000000     0          
C1223    C      0.354500000000     0.750000000000     0.125000000000     0          
C1224    C      0.626700000000     0.750000000000     0.125000000000     0          
C1225    C      0.664100000000     0.750000000000     0.125000000000     0          
C1226    C      0.771900000000     0.750000000000     0.125000000000     0          
C1227    C      0.736200000000     0.750000000000     0.125000000000     0          
N1228    N      0.843300000000     0.750000000000     0.125000000000     0          
C1229    C      0.606000000000     0.250000000000     0.125000000000     0          
C1230    C      0.645500000000     0.250000000000     0.125000000000     0          
C1231    C      0.373300000000     0.250000000000     0.125000000000     0          
C1232    C      0.335900000000     0.250000000000     0.125000000000     0          
C1233    C      0.228100000000     0.250000000000     0.125000000000     0          
C1234    C      0.263800000000     0.250000000000     0.125000000000     0          
N1235    N      0.156700000000     0.250000000000     0.125000000000     0          
C1236    C      0.106000000000     0.750000000000     0.625000000000     0          
C1237    C      0.145500000000     0.750000000000     0.625000000000     0          
C1238    C      0.873300000000     0.750000000000     0.625000000000     0          
C1239    C      0.835900000000     0.750000000000     0.625000000000     0          
C1240    C      0.728100000000     0.750000000000     0.625000000000     0          
C1241    C      0.763800000000     0.750000000000     0.625000000000     0          
N1242    N      0.656700000000     0.750000000000     0.625000000000     0          
C1243    C      0.894000000000     0.250000000000     0.625000000000     0          
C1244    C      0.854500000000     0.250000000000     0.625000000000     0          
C1245    C      0.126700000000     0.250000000000     0.625000000000     0          
C1246    C      0.164100000000     0.250000000000     0.625000000000     0          
C1247    C      0.271900000000     0.250000000000     0.625000000000     0          
C1248    C      0.236200000000     0.250000000000     0.625000000000     0          
N1249    N      0.343300000000     0.250000000000     0.625000000000     0          


