data_GATQIE

_audit_creation_method RASPA-1.0
_audit_creation_date 2020-11-2
_audit_author_name 'Rocio Bueno-Perez'

_cell_length_a    38.8511
_cell_length_b    38.8511
_cell_length_c    18.7521
_cell_angle_alpha 90
_cell_angle_beta  90
_cell_angle_gamma 90
_cell_volume      28304.6

_symmetry_cell_setting          triclinic
_symmetry_space_group_name_Hall 'P 1'
_symmetry_space_group_name_H-M  'P 1'
_symmetry_Int_Tables_number     1

_symmetry_equiv_pos_as_xyz 'x,y,z'

loop_
_atom_site_label
_atom_site_type_symbol
_atom_site_fract_x
_atom_site_fract_y
_atom_site_fract_z
_atom_site_charge
Zr1      Zr     0.990060000000     0.810770000000     0.085770000000     0          
Zr2      Zr     0.944900000000     0.736120000000     0.034950000000     0          
Zr3      Zr     0.035240000000     0.736310000000     0.035840000000     0          
C4       C      0.047100000000     0.843600000000     0.190200000000     0          
C5       C      0.063400000000     0.876100000000     0.221400000000     0          
C6       C      0.085400000000     0.875600000000     0.278700000000     0          
H7       H      0.091260000000     0.854650000000     0.299420000000     0          
C8       C      0.098800000000     0.905000000000     0.305700000000     0          
H9       H      0.111850000000     0.903980000000     0.347210000000     0          
C10      C      0.093600000000     0.935600000000     0.273800000000     0          
C11      C      0.072700000000     0.937400000000     0.211500000000     0          
H12      H      0.069860000000     0.958040000000     0.186980000000     0          
C13      C      0.056400000000     0.907100000000     0.188400000000     0          
H14      H      0.040920000000     0.907930000000     0.150680000000     0          
C15      C      0.064700000000     0.153800000000     0.191200000000     0          
C16      C      0.077500000000     0.122200000000     0.217100000000     0          
C17      C      0.068600000000     0.090900000000     0.188100000000     0          
H18      H      0.055520000000     0.090280000000     0.146590000000     0          
C19      C      0.078900000000     0.060200000000     0.220300000000     0          
H20      H      0.068500000000     0.039680000000     0.206180000000     0          
C21      C      0.101900000000     0.059300000000     0.268300000000     0          
C22      C      0.112300000000     0.090000000000     0.298000000000     0          
H23      H      0.127940000000     0.089770000000     0.335440000000     0          
C24      C      0.100300000000     0.120200000000     0.274100000000     0          
H25      H      0.107470000000     0.140390000000     0.296180000000     0          
C26      C      0.211900000000     0.990300000000     0.652400000000     0          
C27      C      0.195500000000     0.991500000000     0.580600000000     0          
C28      C      0.185100000000     0.960400000000     0.545700000000     0          
H29      H      0.190080000000     0.939140000000     0.566220000000     0          
C30      C      0.168500000000     0.961900000000     0.484500000000     0          
H31      H      0.161890000000     0.941460000000     0.462830000000     0          
C32      C      0.160300000000     0.993800000000     0.449900000000     0          
C33      C      0.169700000000     0.023100000000     0.477100000000     0          
H34      H      0.165780000000     0.043800000000     0.453720000000     0          
C35      C      0.187100000000     0.021700000000     0.547300000000     0          
H36      H      0.192680000000     0.042310000000     0.569710000000     0          
C37      C      0.139400000000     0.994700000000     0.383500000000     0          
C38      C      0.111700000000     0.025900000000     0.306700000000     0          
C39      C      0.108000000000     0.967200000000     0.297200000000     0          
C40      C      0.824120000000     0.742100000000     0.062950000000     0          
H41      H      0.836060000000     0.737340000000     0.021130000000     0          
C42      C      0.788270000000     0.742100000000     0.062950000000     0          
H43      H      0.776320000000     0.737360000000     0.021130000000     0          
N44      N      0.127200000000     0.964500000000     0.359500000000     0          
N45      N      0.098900000000     0.996800000000     0.272600000000     0          
N46      N      0.131800000000     0.026100000000     0.360000000000     0          
O47      O      0.026100000000     0.847500000000     0.139800000000     0          
O48      O      0.054800000000     0.816980000000     0.224600000000     0          
O49      O      0.044610000000     0.152710000000     0.139100000000     0          
O50      O      0.073550000000     0.182100000000     0.223200000000     0          
O51      O      0.219100000000     0.019020000000     0.677200000000     0          
O52      O      0.218700000000     0.961370000000     0.679100000000     0          
O53      O      0.990380000000     0.767540000000     0.015900000000     0          
O54      O      0.990390000000     0.707300000000     0.055000000000     0          
O55      O      0.035400000000     0.781300000000     0.101100000000     0          
O56      O      0.945300000000     0.779680000000     0.104000000000     0          
O57      O      0.090000000000     0.739000000000     0.060700000000     0          
O58      O      0.888960000000     0.738000000000     0.053600000000     0          
O59      O      0.023600000000     0.833500000000     0.997800000000     0          
O60      O      0.139900000000     0.991100000000     0.709600000000     0          
H61      H      0.150660000000     0.972690000000     0.707320000000     0          
H62      H      0.154090000000     0.006350000000     0.709540000000     0          
H63      H      0.151950000000     0.757820000000     0.170470000000     0          
H64      H      0.151950000000     0.727090000000     0.116290000000     0          
H65      H      0.151950000000     0.765100000000     0.088240000000     0          
Zr66     Zr     0.490060000000     0.310770000000     0.585770000000     0          
Zr67     Zr     0.444900000000     0.236120000000     0.534950000000     0          
Zr68     Zr     0.535240000000     0.236310000000     0.535840000000     0          
C69      C      0.547100000000     0.343600000000     0.690200000000     0          
C70      C      0.563400000000     0.376100000000     0.721400000000     0          
C71      C      0.585400000000     0.375600000000     0.778700000000     0          
H72      H      0.591260000000     0.354650000000     0.799420000000     0          
C73      C      0.598800000000     0.405000000000     0.805700000000     0          
H74      H      0.611850000000     0.403980000000     0.847210000000     0          
C75      C      0.593600000000     0.435600000000     0.773800000000     0          
C76      C      0.572700000000     0.437400000000     0.711500000000     0          
H77      H      0.569860000000     0.458040000000     0.686980000000     0          
C78      C      0.556400000000     0.407100000000     0.688400000000     0          
H79      H      0.540920000000     0.407930000000     0.650680000000     0          
C80      C      0.564700000000     0.653800000000     0.691200000000     0          
C81      C      0.577500000000     0.622200000000     0.717100000000     0          
C82      C      0.568600000000     0.590900000000     0.688100000000     0          
H83      H      0.555520000000     0.590280000000     0.646590000000     0          
C84      C      0.578900000000     0.560200000000     0.720300000000     0          
H85      H      0.568500000000     0.539680000000     0.706180000000     0          
C86      C      0.601900000000     0.559300000000     0.768300000000     0          
C87      C      0.612300000000     0.590000000000     0.798000000000     0          
H88      H      0.627940000000     0.589770000000     0.835440000000     0          
C89      C      0.600300000000     0.620200000000     0.774100000000     0          
H90      H      0.607470000000     0.640390000000     0.796180000000     0          
C91      C      0.711900000000     0.490300000000     0.152400000000     0          
C92      C      0.695500000000     0.491500000000     0.080600000000     0          
C93      C      0.685100000000     0.460400000000     0.045700000000     0          
H94      H      0.690080000000     0.439140000000     0.066220000000     0          
C95      C      0.668500000000     0.461900000000     0.984500000000     0          
H96      H      0.661890000000     0.441460000000     0.962830000000     0          
C97      C      0.660300000000     0.493800000000     0.949900000000     0          
C98      C      0.669700000000     0.523100000000     0.977100000000     0          
H99      H      0.665780000000     0.543800000000     0.953720000000     0          
C100     C      0.687100000000     0.521700000000     0.047300000000     0          
H101     H      0.692680000000     0.542310000000     0.069710000000     0          
C102     C      0.639400000000     0.494700000000     0.883500000000     0          
C103     C      0.611700000000     0.525900000000     0.806700000000     0          
C104     C      0.608000000000     0.467200000000     0.797200000000     0          
C105     C      0.324120000000     0.242100000000     0.562950000000     0          
H106     H      0.336060000000     0.237340000000     0.521130000000     0          
C107     C      0.288270000000     0.242100000000     0.562950000000     0          
H108     H      0.276320000000     0.237360000000     0.521130000000     0          
N109     N      0.627200000000     0.464500000000     0.859500000000     0          
N110     N      0.598900000000     0.496800000000     0.772600000000     0          
N111     N      0.631800000000     0.526100000000     0.860000000000     0          
O112     O      0.526100000000     0.347500000000     0.639800000000     0          
O113     O      0.554800000000     0.316980000000     0.724600000000     0          
O114     O      0.544610000000     0.652710000000     0.639100000000     0          
O115     O      0.573550000000     0.682100000000     0.723200000000     0          
O116     O      0.719100000000     0.519020000000     0.177200000000     0          
O117     O      0.718700000000     0.461370000000     0.179100000000     0          
O118     O      0.490380000000     0.267540000000     0.515900000000     0          
O119     O      0.490390000000     0.207300000000     0.555000000000     0          
O120     O      0.535400000000     0.281300000000     0.601100000000     0          
O121     O      0.445300000000     0.279680000000     0.604000000000     0          
O122     O      0.590000000000     0.239000000000     0.560700000000     0          
O123     O      0.388960000000     0.238000000000     0.553600000000     0          
O124     O      0.523600000000     0.333500000000     0.497800000000     0          
O125     O      0.639900000000     0.491100000000     0.209600000000     0          
H126     H      0.650660000000     0.472690000000     0.207320000000     0          
H127     H      0.654090000000     0.506350000000     0.209540000000     0          
H128     H      0.651950000000     0.257820000000     0.670470000000     0          
H129     H      0.651950000000     0.227090000000     0.616290000000     0          
H130     H      0.651950000000     0.265100000000     0.588240000000     0          
Zr131    Zr     0.009940000000     0.189230000000     0.085770000000     0          
Zr132    Zr     0.055100000000     0.263880000000     0.034950000000     0          
Zr133    Zr     0.964760000000     0.263690000000     0.035840000000     0          
C134     C      0.952900000000     0.156400000000     0.190200000000     0          
C135     C      0.936600000000     0.123900000000     0.221400000000     0          
C136     C      0.914600000000     0.124400000000     0.278700000000     0          
H137     H      0.908740000000     0.145350000000     0.299420000000     0          
C138     C      0.901200000000     0.095000000000     0.305700000000     0          
H139     H      0.888150000000     0.096020000000     0.347210000000     0          
C140     C      0.906400000000     0.064400000000     0.273800000000     0          
C141     C      0.927300000000     0.062600000000     0.211500000000     0          
H142     H      0.930140000000     0.041960000000     0.186980000000     0          
C143     C      0.943600000000     0.092900000000     0.188400000000     0          
H144     H      0.959080000000     0.092070000000     0.150680000000     0          
C145     C      0.935300000000     0.846200000000     0.191200000000     0          
C146     C      0.922500000000     0.877800000000     0.217100000000     0          
C147     C      0.931400000000     0.909100000000     0.188100000000     0          
H148     H      0.944480000000     0.909720000000     0.146590000000     0          
C149     C      0.921100000000     0.939800000000     0.220300000000     0          
H150     H      0.931500000000     0.960320000000     0.206180000000     0          
C151     C      0.898100000000     0.940700000000     0.268300000000     0          
C152     C      0.887700000000     0.910000000000     0.298000000000     0          
H153     H      0.872060000000     0.910230000000     0.335440000000     0          
C154     C      0.899700000000     0.879800000000     0.274100000000     0          
H155     H      0.892530000000     0.859610000000     0.296180000000     0          
C156     C      0.788100000000     0.009700000000     0.652400000000     0          
C157     C      0.804500000000     0.008500000000     0.580600000000     0          
C158     C      0.814900000000     0.039600000000     0.545700000000     0          
H159     H      0.809920000000     0.060860000000     0.566220000000     0          
C160     C      0.831500000000     0.038100000000     0.484500000000     0          
H161     H      0.838110000000     0.058540000000     0.462830000000     0          
C162     C      0.839700000000     0.006200000000     0.449900000000     0          
C163     C      0.830300000000     0.976900000000     0.477100000000     0          
H164     H      0.834220000000     0.956200000000     0.453720000000     0          
C165     C      0.812900000000     0.978300000000     0.547300000000     0          
H166     H      0.807320000000     0.957690000000     0.569710000000     0          
C167     C      0.860600000000     0.005300000000     0.383500000000     0          
C168     C      0.888300000000     0.974100000000     0.306700000000     0          
C169     C      0.892000000000     0.032800000000     0.297200000000     0          
C170     C      0.175880000000     0.257900000000     0.062950000000     0          
H171     H      0.163940000000     0.262660000000     0.021130000000     0          
C172     C      0.211730000000     0.257900000000     0.062950000000     0          
H173     H      0.223680000000     0.262640000000     0.021130000000     0          
N174     N      0.872800000000     0.035500000000     0.359500000000     0          
N175     N      0.901100000000     0.003200000000     0.272600000000     0          
N176     N      0.868200000000     0.973900000000     0.360000000000     0          
O177     O      0.973900000000     0.152500000000     0.139800000000     0          
O178     O      0.945200000000     0.183020000000     0.224600000000     0          
O179     O      0.955390000000     0.847290000000     0.139100000000     0          
O180     O      0.926450000000     0.817900000000     0.223200000000     0          
O181     O      0.780900000000     0.980980000000     0.677200000000     0          
O182     O      0.781300000000     0.038630000000     0.679100000000     0          
O183     O      0.009620000000     0.232460000000     0.015900000000     0          
O184     O      0.009610000000     0.292700000000     0.055000000000     0          
O185     O      0.964600000000     0.218700000000     0.101100000000     0          
O186     O      0.054700000000     0.220320000000     0.104000000000     0          
O187     O      0.910000000000     0.261000000000     0.060700000000     0          
O188     O      0.111040000000     0.262000000000     0.053600000000     0          
O189     O      0.976400000000     0.166500000000     0.997800000000     0          
O190     O      0.860100000000     0.008900000000     0.709600000000     0          
H191     H      0.849340000000     0.027310000000     0.707320000000     0          
H192     H      0.845910000000     0.993650000000     0.709540000000     0          
H193     H      0.848050000000     0.242180000000     0.170470000000     0          
H194     H      0.848050000000     0.272910000000     0.116290000000     0          
H195     H      0.848050000000     0.234900000000     0.088240000000     0          
Zr196    Zr     0.509940000000     0.689230000000     0.585770000000     0          
Zr197    Zr     0.555100000000     0.763880000000     0.534950000000     0          
Zr198    Zr     0.464760000000     0.763690000000     0.535840000000     0          
C199     C      0.452900000000     0.656400000000     0.690200000000     0          
C200     C      0.436600000000     0.623900000000     0.721400000000     0          
C201     C      0.414600000000     0.624400000000     0.778700000000     0          
H202     H      0.408740000000     0.645350000000     0.799420000000     0          
C203     C      0.401200000000     0.595000000000     0.805700000000     0          
H204     H      0.388150000000     0.596020000000     0.847210000000     0          
C205     C      0.406400000000     0.564400000000     0.773800000000     0          
C206     C      0.427300000000     0.562600000000     0.711500000000     0          
H207     H      0.430140000000     0.541960000000     0.686980000000     0          
C208     C      0.443600000000     0.592900000000     0.688400000000     0          
H209     H      0.459080000000     0.592070000000     0.650680000000     0          
C210     C      0.435300000000     0.346200000000     0.691200000000     0          
C211     C      0.422500000000     0.377800000000     0.717100000000     0          
C212     C      0.431400000000     0.409100000000     0.688100000000     0          
H213     H      0.444480000000     0.409720000000     0.646590000000     0          
C214     C      0.421100000000     0.439800000000     0.720300000000     0          
H215     H      0.431500000000     0.460320000000     0.706180000000     0          
C216     C      0.398100000000     0.440700000000     0.768300000000     0          
C217     C      0.387700000000     0.410000000000     0.798000000000     0          
H218     H      0.372060000000     0.410230000000     0.835440000000     0          
C219     C      0.399700000000     0.379800000000     0.774100000000     0          
H220     H      0.392530000000     0.359610000000     0.796180000000     0          
C221     C      0.288100000000     0.509700000000     0.152400000000     0          
C222     C      0.304500000000     0.508500000000     0.080600000000     0          
C223     C      0.314900000000     0.539600000000     0.045700000000     0          
H224     H      0.309920000000     0.560860000000     0.066220000000     0          
C225     C      0.331500000000     0.538100000000     0.984500000000     0          
H226     H      0.338110000000     0.558540000000     0.962830000000     0          
C227     C      0.339700000000     0.506200000000     0.949900000000     0          
C228     C      0.330300000000     0.476900000000     0.977100000000     0          
H229     H      0.334220000000     0.456200000000     0.953720000000     0          
C230     C      0.312900000000     0.478300000000     0.047300000000     0          
H231     H      0.307320000000     0.457690000000     0.069710000000     0          
C232     C      0.360600000000     0.505300000000     0.883500000000     0          
C233     C      0.388300000000     0.474100000000     0.806700000000     0          
C234     C      0.392000000000     0.532800000000     0.797200000000     0          
C235     C      0.675880000000     0.757900000000     0.562950000000     0          
H236     H      0.663940000000     0.762660000000     0.521130000000     0          
C237     C      0.711730000000     0.757900000000     0.562950000000     0          
H238     H      0.723680000000     0.762640000000     0.521130000000     0          
N239     N      0.372800000000     0.535500000000     0.859500000000     0          
N240     N      0.401100000000     0.503200000000     0.772600000000     0          
N241     N      0.368200000000     0.473900000000     0.860000000000     0          
O242     O      0.473900000000     0.652500000000     0.639800000000     0          
O243     O      0.445200000000     0.683020000000     0.724600000000     0          
O244     O      0.455390000000     0.347290000000     0.639100000000     0          
O245     O      0.426450000000     0.317900000000     0.723200000000     0          
O246     O      0.280900000000     0.480980000000     0.177200000000     0          
O247     O      0.281300000000     0.538630000000     0.179100000000     0          
O248     O      0.509620000000     0.732460000000     0.515900000000     0          
O249     O      0.509610000000     0.792700000000     0.555000000000     0          
O250     O      0.464600000000     0.718700000000     0.601100000000     0          
O251     O      0.554700000000     0.720320000000     0.604000000000     0          
O252     O      0.410000000000     0.761000000000     0.560700000000     0          
O253     O      0.611040000000     0.762000000000     0.553600000000     0          
O254     O      0.476400000000     0.666500000000     0.497800000000     0          
O255     O      0.360100000000     0.508900000000     0.209600000000     0          
H256     H      0.349340000000     0.527310000000     0.207320000000     0          
H257     H      0.345910000000     0.493650000000     0.209540000000     0          
H258     H      0.348050000000     0.742180000000     0.670470000000     0          
H259     H      0.348050000000     0.772910000000     0.616290000000     0          
H260     H      0.348050000000     0.734900000000     0.588240000000     0          
Zr261    Zr     0.810770000000     0.009940000000     0.914230000000     0          
Zr262    Zr     0.736120000000     0.055100000000     0.965050000000     0          
Zr263    Zr     0.736310000000     0.964760000000     0.964160000000     0          
C264     C      0.843600000000     0.952900000000     0.809800000000     0          
C265     C      0.876100000000     0.936600000000     0.778600000000     0          
C266     C      0.875600000000     0.914600000000     0.721300000000     0          
H267     H      0.854650000000     0.908740000000     0.700580000000     0          
C268     C      0.905000000000     0.901200000000     0.694300000000     0          
H269     H      0.903980000000     0.888150000000     0.652790000000     0          
C270     C      0.935600000000     0.906400000000     0.726200000000     0          
C271     C      0.937400000000     0.927300000000     0.788500000000     0          
H272     H      0.958040000000     0.930140000000     0.813020000000     0          
C273     C      0.907100000000     0.943600000000     0.811600000000     0          
H274     H      0.907930000000     0.959080000000     0.849320000000     0          
C275     C      0.153800000000     0.935300000000     0.808800000000     0          
C276     C      0.122200000000     0.922500000000     0.782900000000     0          
C277     C      0.090900000000     0.931400000000     0.811900000000     0          
H278     H      0.090280000000     0.944480000000     0.853410000000     0          
C279     C      0.060200000000     0.921100000000     0.779700000000     0          
H280     H      0.039680000000     0.931500000000     0.793820000000     0          
C281     C      0.059300000000     0.898100000000     0.731700000000     0          
C282     C      0.090000000000     0.887700000000     0.702000000000     0          
H283     H      0.089770000000     0.872060000000     0.664560000000     0          
C284     C      0.120200000000     0.899700000000     0.725900000000     0          
H285     H      0.140390000000     0.892530000000     0.703820000000     0          
C286     C      0.990300000000     0.788100000000     0.347600000000     0          
C287     C      0.991500000000     0.804500000000     0.419400000000     0          
C288     C      0.960400000000     0.814900000000     0.454300000000     0          
H289     H      0.939140000000     0.809920000000     0.433780000000     0          
C290     C      0.961900000000     0.831500000000     0.515500000000     0          
H291     H      0.941460000000     0.838110000000     0.537170000000     0          
C292     C      0.993800000000     0.839700000000     0.550100000000     0          
C293     C      0.023100000000     0.830300000000     0.522900000000     0          
H294     H      0.043800000000     0.834220000000     0.546280000000     0          
C295     C      0.021700000000     0.812900000000     0.452700000000     0          
H296     H      0.042310000000     0.807320000000     0.430290000000     0          
C297     C      0.994700000000     0.860600000000     0.616500000000     0          
C298     C      0.025900000000     0.888300000000     0.693300000000     0          
C299     C      0.967200000000     0.892000000000     0.702800000000     0          
C300     C      0.742100000000     0.175880000000     0.937050000000     0          
H301     H      0.737340000000     0.163940000000     0.978870000000     0          
C302     C      0.742100000000     0.211730000000     0.937050000000     0          
H303     H      0.737360000000     0.223680000000     0.978870000000     0          
N304     N      0.964500000000     0.872800000000     0.640500000000     0          
N305     N      0.996800000000     0.901100000000     0.727400000000     0          
N306     N      0.026100000000     0.868200000000     0.640000000000     0          
O307     O      0.847500000000     0.973900000000     0.860200000000     0          
O308     O      0.816980000000     0.945200000000     0.775400000000     0          
O309     O      0.152710000000     0.955390000000     0.860900000000     0          
O310     O      0.182100000000     0.926450000000     0.776800000000     0          
O311     O      0.019020000000     0.780900000000     0.322800000000     0          
O312     O      0.961370000000     0.781300000000     0.320900000000     0          
O313     O      0.767540000000     0.009620000000     0.984100000000     0          
O314     O      0.707300000000     0.009610000000     0.945000000000     0          
O315     O      0.781300000000     0.964600000000     0.898900000000     0          
O316     O      0.779680000000     0.054700000000     0.896000000000     0          
O317     O      0.739000000000     0.910000000000     0.939300000000     0          
O318     O      0.738000000000     0.111040000000     0.946400000000     0          
O319     O      0.833500000000     0.976400000000     0.002200000000     0          
O320     O      0.991100000000     0.860100000000     0.290400000000     0          
H321     H      0.972690000000     0.849340000000     0.292680000000     0          
H322     H      0.006350000000     0.845910000000     0.290460000000     0          
Zr323    Zr     0.310770000000     0.509940000000     0.414230000000     0          
Zr324    Zr     0.236120000000     0.555100000000     0.465050000000     0          
Zr325    Zr     0.236310000000     0.464760000000     0.464160000000     0          
C326     C      0.343600000000     0.452900000000     0.309800000000     0          
C327     C      0.376100000000     0.436600000000     0.278600000000     0          
C328     C      0.375600000000     0.414600000000     0.221300000000     0          
H329     H      0.354650000000     0.408740000000     0.200580000000     0          
C330     C      0.405000000000     0.401200000000     0.194300000000     0          
H331     H      0.403980000000     0.388150000000     0.152790000000     0          
C332     C      0.435600000000     0.406400000000     0.226200000000     0          
C333     C      0.437400000000     0.427300000000     0.288500000000     0          
H334     H      0.458040000000     0.430140000000     0.313020000000     0          
C335     C      0.407100000000     0.443600000000     0.311600000000     0          
H336     H      0.407930000000     0.459080000000     0.349320000000     0          
C337     C      0.653800000000     0.435300000000     0.308800000000     0          
C338     C      0.622200000000     0.422500000000     0.282900000000     0          
C339     C      0.590900000000     0.431400000000     0.311900000000     0          
H340     H      0.590280000000     0.444480000000     0.353410000000     0          
C341     C      0.560200000000     0.421100000000     0.279700000000     0          
H342     H      0.539680000000     0.431500000000     0.293820000000     0          
C343     C      0.559300000000     0.398100000000     0.231700000000     0          
C344     C      0.590000000000     0.387700000000     0.202000000000     0          
H345     H      0.589770000000     0.372060000000     0.164560000000     0          
C346     C      0.620200000000     0.399700000000     0.225900000000     0          
H347     H      0.640390000000     0.392530000000     0.203820000000     0          
C348     C      0.490300000000     0.288100000000     0.847600000000     0          
C349     C      0.491500000000     0.304500000000     0.919400000000     0          
C350     C      0.460400000000     0.314900000000     0.954300000000     0          
H351     H      0.439140000000     0.309920000000     0.933780000000     0          
C352     C      0.461900000000     0.331500000000     0.015500000000     0          
H353     H      0.441460000000     0.338110000000     0.037170000000     0          
C354     C      0.493800000000     0.339700000000     0.050100000000     0          
C355     C      0.523100000000     0.330300000000     0.022900000000     0          
H356     H      0.543800000000     0.334220000000     0.046280000000     0          
C357     C      0.521700000000     0.312900000000     0.952700000000     0          
H358     H      0.542310000000     0.307320000000     0.930290000000     0          
C359     C      0.494700000000     0.360600000000     0.116500000000     0          
C360     C      0.525900000000     0.388300000000     0.193300000000     0          
C361     C      0.467200000000     0.392000000000     0.202800000000     0          
C362     C      0.242100000000     0.675880000000     0.437050000000     0          
H363     H      0.237340000000     0.663940000000     0.478870000000     0          
C364     C      0.242100000000     0.711730000000     0.437050000000     0          
H365     H      0.237360000000     0.723680000000     0.478870000000     0          
N366     N      0.464500000000     0.372800000000     0.140500000000     0          
N367     N      0.496800000000     0.401100000000     0.227400000000     0          
N368     N      0.526100000000     0.368200000000     0.140000000000     0          
O369     O      0.347500000000     0.473900000000     0.360200000000     0          
O370     O      0.316980000000     0.445200000000     0.275400000000     0          
O371     O      0.652710000000     0.455390000000     0.360900000000     0          
O372     O      0.682100000000     0.426450000000     0.276800000000     0          
O373     O      0.519020000000     0.280900000000     0.822800000000     0          
O374     O      0.461370000000     0.281300000000     0.820900000000     0          
O375     O      0.267540000000     0.509620000000     0.484100000000     0          
O376     O      0.207300000000     0.509610000000     0.445000000000     0          
O377     O      0.281300000000     0.464600000000     0.398900000000     0          
O378     O      0.279680000000     0.554700000000     0.396000000000     0          
O379     O      0.239000000000     0.410000000000     0.439300000000     0          
O380     O      0.238000000000     0.611040000000     0.446400000000     0          
O381     O      0.333500000000     0.476400000000     0.502200000000     0          
O382     O      0.491100000000     0.360100000000     0.790400000000     0          
H383     H      0.472690000000     0.349340000000     0.792680000000     0          
H384     H      0.506350000000     0.345910000000     0.790460000000     0          
Zr385    Zr     0.189230000000     0.990060000000     0.914230000000     0          
Zr386    Zr     0.263880000000     0.944900000000     0.965050000000     0          
Zr387    Zr     0.263690000000     0.035240000000     0.964160000000     0          
C388     C      0.156400000000     0.047100000000     0.809800000000     0          
C389     C      0.123900000000     0.063400000000     0.778600000000     0          
C390     C      0.124400000000     0.085400000000     0.721300000000     0          
H391     H      0.145350000000     0.091260000000     0.700580000000     0          
C392     C      0.095000000000     0.098800000000     0.694300000000     0          
H393     H      0.096020000000     0.111850000000     0.652790000000     0          
C394     C      0.064400000000     0.093600000000     0.726200000000     0          
C395     C      0.062600000000     0.072700000000     0.788500000000     0          
H396     H      0.041960000000     0.069860000000     0.813020000000     0          
C397     C      0.092900000000     0.056400000000     0.811600000000     0          
H398     H      0.092070000000     0.040920000000     0.849320000000     0          
C399     C      0.846200000000     0.064700000000     0.808800000000     0          
C400     C      0.877800000000     0.077500000000     0.782900000000     0          
C401     C      0.909100000000     0.068600000000     0.811900000000     0          
H402     H      0.909720000000     0.055520000000     0.853410000000     0          
C403     C      0.939800000000     0.078900000000     0.779700000000     0          
H404     H      0.960320000000     0.068500000000     0.793820000000     0          
C405     C      0.940700000000     0.101900000000     0.731700000000     0          
C406     C      0.910000000000     0.112300000000     0.702000000000     0          
H407     H      0.910230000000     0.127940000000     0.664560000000     0          
C408     C      0.879800000000     0.100300000000     0.725900000000     0          
H409     H      0.859610000000     0.107470000000     0.703820000000     0          
C410     C      0.009700000000     0.211900000000     0.347600000000     0          
C411     C      0.008500000000     0.195500000000     0.419400000000     0          
C412     C      0.039600000000     0.185100000000     0.454300000000     0          
H413     H      0.060860000000     0.190080000000     0.433780000000     0          
C414     C      0.038100000000     0.168500000000     0.515500000000     0          
H415     H      0.058540000000     0.161890000000     0.537170000000     0          
C416     C      0.006200000000     0.160300000000     0.550100000000     0          
C417     C      0.976900000000     0.169700000000     0.522900000000     0          
H418     H      0.956200000000     0.165780000000     0.546280000000     0          
C419     C      0.978300000000     0.187100000000     0.452700000000     0          
H420     H      0.957690000000     0.192680000000     0.430290000000     0          
C421     C      0.005300000000     0.139400000000     0.616500000000     0          
C422     C      0.974100000000     0.111700000000     0.693300000000     0          
C423     C      0.032800000000     0.108000000000     0.702800000000     0          
C424     C      0.257900000000     0.824120000000     0.937050000000     0          
H425     H      0.262660000000     0.836060000000     0.978870000000     0          
C426     C      0.257900000000     0.788270000000     0.937050000000     0          
H427     H      0.262640000000     0.776320000000     0.978870000000     0          
N428     N      0.035500000000     0.127200000000     0.640500000000     0          
N429     N      0.003200000000     0.098900000000     0.727400000000     0          
N430     N      0.973900000000     0.131800000000     0.640000000000     0          
O431     O      0.152500000000     0.026100000000     0.860200000000     0          
O432     O      0.183020000000     0.054800000000     0.775400000000     0          
O433     O      0.847290000000     0.044610000000     0.860900000000     0          
O434     O      0.817900000000     0.073550000000     0.776800000000     0          
O435     O      0.980980000000     0.219100000000     0.322800000000     0          
O436     O      0.038630000000     0.218700000000     0.320900000000     0          
O437     O      0.232460000000     0.990380000000     0.984100000000     0          
O438     O      0.292700000000     0.990390000000     0.945000000000     0          
O439     O      0.218700000000     0.035400000000     0.898900000000     0          
O440     O      0.220320000000     0.945300000000     0.896000000000     0          
O441     O      0.261000000000     0.090000000000     0.939300000000     0          
O442     O      0.262000000000     0.888960000000     0.946400000000     0          
O443     O      0.166500000000     0.023600000000     0.002200000000     0          
O444     O      0.008900000000     0.139900000000     0.290400000000     0          
H445     H      0.027310000000     0.150660000000     0.292680000000     0          
H446     H      0.993650000000     0.154090000000     0.290460000000     0          
H447     H      0.242180000000     0.151950000000     0.829530000000     0          
H448     H      0.272910000000     0.151950000000     0.883710000000     0          
H449     H      0.234900000000     0.151950000000     0.911760000000     0          
Zr450    Zr     0.689230000000     0.490060000000     0.414230000000     0          
Zr451    Zr     0.763880000000     0.444900000000     0.465050000000     0          
Zr452    Zr     0.763690000000     0.535240000000     0.464160000000     0          
C453     C      0.656400000000     0.547100000000     0.309800000000     0          
C454     C      0.623900000000     0.563400000000     0.278600000000     0          
C455     C      0.624400000000     0.585400000000     0.221300000000     0          
H456     H      0.645350000000     0.591260000000     0.200580000000     0          
C457     C      0.595000000000     0.598800000000     0.194300000000     0          
H458     H      0.596020000000     0.611850000000     0.152790000000     0          
C459     C      0.564400000000     0.593600000000     0.226200000000     0          
C460     C      0.562600000000     0.572700000000     0.288500000000     0          
H461     H      0.541960000000     0.569860000000     0.313020000000     0          
C462     C      0.592900000000     0.556400000000     0.311600000000     0          
H463     H      0.592070000000     0.540920000000     0.349320000000     0          
C464     C      0.346200000000     0.564700000000     0.308800000000     0          
C465     C      0.377800000000     0.577500000000     0.282900000000     0          
C466     C      0.409100000000     0.568600000000     0.311900000000     0          
H467     H      0.409720000000     0.555520000000     0.353410000000     0          
C468     C      0.439800000000     0.578900000000     0.279700000000     0          
H469     H      0.460320000000     0.568500000000     0.293820000000     0          
C470     C      0.440700000000     0.601900000000     0.231700000000     0          
C471     C      0.410000000000     0.612300000000     0.202000000000     0          
H472     H      0.410230000000     0.627940000000     0.164560000000     0          
C473     C      0.379800000000     0.600300000000     0.225900000000     0          
H474     H      0.359610000000     0.607470000000     0.203820000000     0          
C475     C      0.509700000000     0.711900000000     0.847600000000     0          
C476     C      0.508500000000     0.695500000000     0.919400000000     0          
C477     C      0.539600000000     0.685100000000     0.954300000000     0          
H478     H      0.560860000000     0.690080000000     0.933780000000     0          
C479     C      0.538100000000     0.668500000000     0.015500000000     0          
H480     H      0.558540000000     0.661890000000     0.037170000000     0          
C481     C      0.506200000000     0.660300000000     0.050100000000     0          
C482     C      0.476900000000     0.669700000000     0.022900000000     0          
H483     H      0.456200000000     0.665780000000     0.046280000000     0          
C484     C      0.478300000000     0.687100000000     0.952700000000     0          
H485     H      0.457690000000     0.692680000000     0.930290000000     0          
C486     C      0.505300000000     0.639400000000     0.116500000000     0          
C487     C      0.474100000000     0.611700000000     0.193300000000     0          
C488     C      0.532800000000     0.608000000000     0.202800000000     0          
C489     C      0.757900000000     0.324120000000     0.437050000000     0          
H490     H      0.762660000000     0.336060000000     0.478870000000     0          
C491     C      0.757900000000     0.288270000000     0.437050000000     0          
H492     H      0.762640000000     0.276320000000     0.478870000000     0          
N493     N      0.535500000000     0.627200000000     0.140500000000     0          
N494     N      0.503200000000     0.598900000000     0.227400000000     0          
N495     N      0.473900000000     0.631800000000     0.140000000000     0          
O496     O      0.652500000000     0.526100000000     0.360200000000     0          
O497     O      0.683020000000     0.554800000000     0.275400000000     0          
O498     O      0.347290000000     0.544610000000     0.360900000000     0          
O499     O      0.317900000000     0.573550000000     0.276800000000     0          
O500     O      0.480980000000     0.719100000000     0.822800000000     0          
O501     O      0.538630000000     0.718700000000     0.820900000000     0          
O502     O      0.732460000000     0.490380000000     0.484100000000     0          
O503     O      0.792700000000     0.490390000000     0.445000000000     0          
O504     O      0.718700000000     0.535400000000     0.398900000000     0          
O505     O      0.720320000000     0.445300000000     0.396000000000     0          
O506     O      0.761000000000     0.590000000000     0.439300000000     0          
O507     O      0.762000000000     0.388960000000     0.446400000000     0          
O508     O      0.666500000000     0.523600000000     0.502200000000     0          
O509     O      0.508900000000     0.639900000000     0.790400000000     0          
H510     H      0.527310000000     0.650660000000     0.792680000000     0          
H511     H      0.493650000000     0.654090000000     0.790460000000     0          
H512     H      0.742180000000     0.651950000000     0.329530000000     0          
H513     H      0.772910000000     0.651950000000     0.383710000000     0          
H514     H      0.734900000000     0.651950000000     0.411760000000     0          
Zr515    Zr     0.509940000000     0.810770000000     0.664230000000     0          
Zr516    Zr     0.555100000000     0.736120000000     0.715050000000     0          
Zr517    Zr     0.464760000000     0.736310000000     0.714160000000     0          
C518     C      0.452900000000     0.843600000000     0.559800000000     0          
C519     C      0.436600000000     0.876100000000     0.528600000000     0          
C520     C      0.414600000000     0.875600000000     0.471300000000     0          
H521     H      0.408740000000     0.854650000000     0.450580000000     0          
C522     C      0.401200000000     0.905000000000     0.444300000000     0          
H523     H      0.388150000000     0.903980000000     0.402790000000     0          
C524     C      0.406400000000     0.935600000000     0.476200000000     0          
C525     C      0.427300000000     0.937400000000     0.538500000000     0          
H526     H      0.430140000000     0.958040000000     0.563020000000     0          
C527     C      0.443600000000     0.907100000000     0.561600000000     0          
H528     H      0.459080000000     0.907930000000     0.599320000000     0          
C529     C      0.435300000000     0.153800000000     0.558800000000     0          
C530     C      0.422500000000     0.122200000000     0.532900000000     0          
C531     C      0.431400000000     0.090900000000     0.561900000000     0          
H532     H      0.444480000000     0.090280000000     0.603410000000     0          
C533     C      0.421100000000     0.060200000000     0.529700000000     0          
H534     H      0.431500000000     0.039680000000     0.543820000000     0          
C535     C      0.398100000000     0.059300000000     0.481700000000     0          
C536     C      0.387700000000     0.090000000000     0.452000000000     0          
H537     H      0.372060000000     0.089770000000     0.414560000000     0          
C538     C      0.399700000000     0.120200000000     0.475900000000     0          
H539     H      0.392530000000     0.140390000000     0.453820000000     0          
C540     C      0.288100000000     0.990300000000     0.097600000000     0          
C541     C      0.304500000000     0.991500000000     0.169400000000     0          
C542     C      0.314900000000     0.960400000000     0.204300000000     0          
H543     H      0.309920000000     0.939140000000     0.183780000000     0          
C544     C      0.331500000000     0.961900000000     0.265500000000     0          
H545     H      0.338110000000     0.941460000000     0.287170000000     0          
C546     C      0.339700000000     0.993800000000     0.300100000000     0          
C547     C      0.330300000000     0.023100000000     0.272900000000     0          
H548     H      0.334220000000     0.043800000000     0.296280000000     0          
C549     C      0.312900000000     0.021700000000     0.202700000000     0          
H550     H      0.307320000000     0.042310000000     0.180290000000     0          
C551     C      0.360600000000     0.994700000000     0.366500000000     0          
C552     C      0.388300000000     0.025900000000     0.443300000000     0          
C553     C      0.392000000000     0.967200000000     0.452800000000     0          
C554     C      0.675880000000     0.742100000000     0.687050000000     0          
H555     H      0.663940000000     0.737340000000     0.728870000000     0          
C556     C      0.711730000000     0.742100000000     0.687050000000     0          
H557     H      0.723680000000     0.737360000000     0.728870000000     0          
N558     N      0.372800000000     0.964500000000     0.390500000000     0          
N559     N      0.401100000000     0.996800000000     0.477400000000     0          
N560     N      0.368200000000     0.026100000000     0.390000000000     0          
O561     O      0.473900000000     0.847500000000     0.610200000000     0          
O562     O      0.445200000000     0.816980000000     0.525400000000     0          
O563     O      0.455390000000     0.152710000000     0.610900000000     0          
O564     O      0.426450000000     0.182100000000     0.526800000000     0          
O565     O      0.280900000000     0.019020000000     0.072800000000     0          
O566     O      0.281300000000     0.961370000000     0.070900000000     0          
O567     O      0.509620000000     0.767540000000     0.734100000000     0          
O568     O      0.509610000000     0.707300000000     0.695000000000     0          
O569     O      0.464600000000     0.781300000000     0.648900000000     0          
O570     O      0.554700000000     0.779680000000     0.646000000000     0          
O571     O      0.410000000000     0.739000000000     0.689300000000     0          
O572     O      0.611040000000     0.738000000000     0.696400000000     0          
O573     O      0.476400000000     0.833500000000     0.752200000000     0          
O574     O      0.360100000000     0.991100000000     0.040400000000     0          
H575     H      0.349340000000     0.972690000000     0.042680000000     0          
H576     H      0.345910000000     0.006350000000     0.040460000000     0          
Zr577    Zr     0.009940000000     0.310770000000     0.164230000000     0          
Zr578    Zr     0.055100000000     0.236120000000     0.215050000000     0          
Zr579    Zr     0.964760000000     0.236310000000     0.214160000000     0          
C580     C      0.952900000000     0.343600000000     0.059800000000     0          
C581     C      0.936600000000     0.376100000000     0.028600000000     0          
C582     C      0.914600000000     0.375600000000     0.971300000000     0          
H583     H      0.908740000000     0.354650000000     0.950580000000     0          
C584     C      0.901200000000     0.405000000000     0.944300000000     0          
H585     H      0.888150000000     0.403980000000     0.902790000000     0          
C586     C      0.906400000000     0.435600000000     0.976200000000     0          
C587     C      0.927300000000     0.437400000000     0.038500000000     0          
H588     H      0.930140000000     0.458040000000     0.063020000000     0          
C589     C      0.943600000000     0.407100000000     0.061600000000     0          
H590     H      0.959080000000     0.407930000000     0.099320000000     0          
C591     C      0.935300000000     0.653800000000     0.058800000000     0          
C592     C      0.922500000000     0.622200000000     0.032900000000     0          
C593     C      0.931400000000     0.590900000000     0.061900000000     0          
H594     H      0.944480000000     0.590280000000     0.103410000000     0          
C595     C      0.921100000000     0.560200000000     0.029700000000     0          
H596     H      0.931500000000     0.539680000000     0.043820000000     0          
C597     C      0.898100000000     0.559300000000     0.981700000000     0          
C598     C      0.887700000000     0.590000000000     0.952000000000     0          
H599     H      0.872060000000     0.589770000000     0.914560000000     0          
C600     C      0.899700000000     0.620200000000     0.975900000000     0          
H601     H      0.892530000000     0.640390000000     0.953820000000     0          
C602     C      0.788100000000     0.490300000000     0.597600000000     0          
C603     C      0.804500000000     0.491500000000     0.669400000000     0          
C604     C      0.814900000000     0.460400000000     0.704300000000     0          
H605     H      0.809920000000     0.439140000000     0.683780000000     0          
C606     C      0.831500000000     0.461900000000     0.765500000000     0          
H607     H      0.838110000000     0.441460000000     0.787170000000     0          
C608     C      0.839700000000     0.493800000000     0.800100000000     0          
C609     C      0.830300000000     0.523100000000     0.772900000000     0          
H610     H      0.834220000000     0.543800000000     0.796280000000     0          
C611     C      0.812900000000     0.521700000000     0.702700000000     0          
H612     H      0.807320000000     0.542310000000     0.680290000000     0          
C613     C      0.860600000000     0.494700000000     0.866500000000     0          
C614     C      0.888300000000     0.525900000000     0.943300000000     0          
C615     C      0.892000000000     0.467200000000     0.952800000000     0          
C616     C      0.175880000000     0.242100000000     0.187050000000     0          
H617     H      0.163940000000     0.237340000000     0.228870000000     0          
C618     C      0.211730000000     0.242100000000     0.187050000000     0          
H619     H      0.223680000000     0.237360000000     0.228870000000     0          
N620     N      0.872800000000     0.464500000000     0.890500000000     0          
N621     N      0.901100000000     0.496800000000     0.977400000000     0          
N622     N      0.868200000000     0.526100000000     0.890000000000     0          
O623     O      0.973900000000     0.347500000000     0.110200000000     0          
O624     O      0.945200000000     0.316980000000     0.025400000000     0          
O625     O      0.955390000000     0.652710000000     0.110900000000     0          
O626     O      0.926450000000     0.682100000000     0.026800000000     0          
O627     O      0.780900000000     0.519020000000     0.572800000000     0          
O628     O      0.781300000000     0.461370000000     0.570900000000     0          
O629     O      0.009620000000     0.267540000000     0.234100000000     0          
O630     O      0.009610000000     0.207300000000     0.195000000000     0          
O631     O      0.964600000000     0.281300000000     0.148900000000     0          
O632     O      0.054700000000     0.279680000000     0.146000000000     0          
O633     O      0.910000000000     0.239000000000     0.189300000000     0          
O634     O      0.111040000000     0.238000000000     0.196400000000     0          
O635     O      0.976400000000     0.333500000000     0.252200000000     0          
O636     O      0.860100000000     0.491100000000     0.540400000000     0          
H637     H      0.849340000000     0.472690000000     0.542680000000     0          
H638     H      0.845910000000     0.506350000000     0.540460000000     0          
Zr639    Zr     0.490060000000     0.189230000000     0.664230000000     0          
Zr640    Zr     0.444900000000     0.263880000000     0.715050000000     0          
Zr641    Zr     0.535240000000     0.263690000000     0.714160000000     0          
C642     C      0.547100000000     0.156400000000     0.559800000000     0          
C643     C      0.563400000000     0.123900000000     0.528600000000     0          
C644     C      0.585400000000     0.124400000000     0.471300000000     0          
H645     H      0.591260000000     0.145350000000     0.450580000000     0          
C646     C      0.598800000000     0.095000000000     0.444300000000     0          
H647     H      0.611850000000     0.096020000000     0.402790000000     0          
C648     C      0.593600000000     0.064400000000     0.476200000000     0          
C649     C      0.572700000000     0.062600000000     0.538500000000     0          
H650     H      0.569860000000     0.041960000000     0.563020000000     0          
C651     C      0.556400000000     0.092900000000     0.561600000000     0          
H652     H      0.540920000000     0.092070000000     0.599320000000     0          
C653     C      0.564700000000     0.846200000000     0.558800000000     0          
C654     C      0.577500000000     0.877800000000     0.532900000000     0          
C655     C      0.568600000000     0.909100000000     0.561900000000     0          
H656     H      0.555520000000     0.909720000000     0.603410000000     0          
C657     C      0.578900000000     0.939800000000     0.529700000000     0          
H658     H      0.568500000000     0.960320000000     0.543820000000     0          
C659     C      0.601900000000     0.940700000000     0.481700000000     0          
C660     C      0.612300000000     0.910000000000     0.452000000000     0          
H661     H      0.627940000000     0.910230000000     0.414560000000     0          
C662     C      0.600300000000     0.879800000000     0.475900000000     0          
H663     H      0.607470000000     0.859610000000     0.453820000000     0          
C664     C      0.711900000000     0.009700000000     0.097600000000     0          
C665     C      0.695500000000     0.008500000000     0.169400000000     0          
C666     C      0.685100000000     0.039600000000     0.204300000000     0          
H667     H      0.690080000000     0.060860000000     0.183780000000     0          
C668     C      0.668500000000     0.038100000000     0.265500000000     0          
H669     H      0.661890000000     0.058540000000     0.287170000000     0          
C670     C      0.660300000000     0.006200000000     0.300100000000     0          
C671     C      0.669700000000     0.976900000000     0.272900000000     0          
H672     H      0.665780000000     0.956200000000     0.296280000000     0          
C673     C      0.687100000000     0.978300000000     0.202700000000     0          
H674     H      0.692680000000     0.957690000000     0.180290000000     0          
C675     C      0.639400000000     0.005300000000     0.366500000000     0          
C676     C      0.611700000000     0.974100000000     0.443300000000     0          
C677     C      0.608000000000     0.032800000000     0.452800000000     0          
C678     C      0.324120000000     0.257900000000     0.687050000000     0          
H679     H      0.336060000000     0.262660000000     0.728870000000     0          
C680     C      0.288270000000     0.257900000000     0.687050000000     0          
H681     H      0.276320000000     0.262640000000     0.728870000000     0          
N682     N      0.627200000000     0.035500000000     0.390500000000     0          
N683     N      0.598900000000     0.003200000000     0.477400000000     0          
N684     N      0.631800000000     0.973900000000     0.390000000000     0          
O685     O      0.526100000000     0.152500000000     0.610200000000     0          
O686     O      0.554800000000     0.183020000000     0.525400000000     0          
O687     O      0.544610000000     0.847290000000     0.610900000000     0          
O688     O      0.573550000000     0.817900000000     0.526800000000     0          
O689     O      0.719100000000     0.980980000000     0.072800000000     0          
O690     O      0.718700000000     0.038630000000     0.070900000000     0          
O691     O      0.490380000000     0.232460000000     0.734100000000     0          
O692     O      0.490390000000     0.292700000000     0.695000000000     0          
O693     O      0.535400000000     0.218700000000     0.648900000000     0          
O694     O      0.445300000000     0.220320000000     0.646000000000     0          
O695     O      0.590000000000     0.261000000000     0.689300000000     0          
O696     O      0.388960000000     0.262000000000     0.696400000000     0          
O697     O      0.523600000000     0.166500000000     0.752200000000     0          
O698     O      0.639900000000     0.008900000000     0.040400000000     0          
H699     H      0.650660000000     0.027310000000     0.042680000000     0          
H700     H      0.654090000000     0.993650000000     0.040460000000     0          
Zr701    Zr     0.990060000000     0.689230000000     0.164230000000     0          
Zr702    Zr     0.944900000000     0.763880000000     0.215050000000     0          
Zr703    Zr     0.035240000000     0.763690000000     0.214160000000     0          
C704     C      0.047100000000     0.656400000000     0.059800000000     0          
C705     C      0.063400000000     0.623900000000     0.028600000000     0          
C706     C      0.085400000000     0.624400000000     0.971300000000     0          
H707     H      0.091260000000     0.645350000000     0.950580000000     0          
C708     C      0.098800000000     0.595000000000     0.944300000000     0          
H709     H      0.111850000000     0.596020000000     0.902790000000     0          
C710     C      0.093600000000     0.564400000000     0.976200000000     0          
C711     C      0.072700000000     0.562600000000     0.038500000000     0          
H712     H      0.069860000000     0.541960000000     0.063020000000     0          
C713     C      0.056400000000     0.592900000000     0.061600000000     0          
H714     H      0.040920000000     0.592070000000     0.099320000000     0          
C715     C      0.064700000000     0.346200000000     0.058800000000     0          
C716     C      0.077500000000     0.377800000000     0.032900000000     0          
C717     C      0.068600000000     0.409100000000     0.061900000000     0          
H718     H      0.055520000000     0.409720000000     0.103410000000     0          
C719     C      0.078900000000     0.439800000000     0.029700000000     0          
H720     H      0.068500000000     0.460320000000     0.043820000000     0          
C721     C      0.101900000000     0.440700000000     0.981700000000     0          
C722     C      0.112300000000     0.410000000000     0.952000000000     0          
H723     H      0.127940000000     0.410230000000     0.914560000000     0          
C724     C      0.100300000000     0.379800000000     0.975900000000     0          
H725     H      0.107470000000     0.359610000000     0.953820000000     0          
C726     C      0.211900000000     0.509700000000     0.597600000000     0          
C727     C      0.195500000000     0.508500000000     0.669400000000     0          
C728     C      0.185100000000     0.539600000000     0.704300000000     0          
H729     H      0.190080000000     0.560860000000     0.683780000000     0          
C730     C      0.168500000000     0.538100000000     0.765500000000     0          
H731     H      0.161890000000     0.558540000000     0.787170000000     0          
C732     C      0.160300000000     0.506200000000     0.800100000000     0          
C733     C      0.169700000000     0.476900000000     0.772900000000     0          
H734     H      0.165780000000     0.456200000000     0.796280000000     0          
C735     C      0.187100000000     0.478300000000     0.702700000000     0          
H736     H      0.192680000000     0.457690000000     0.680290000000     0          
C737     C      0.139400000000     0.505300000000     0.866500000000     0          
C738     C      0.111700000000     0.474100000000     0.943300000000     0          
C739     C      0.108000000000     0.532800000000     0.952800000000     0          
C740     C      0.824120000000     0.757900000000     0.187050000000     0          
H741     H      0.836060000000     0.762660000000     0.228870000000     0          
C742     C      0.788270000000     0.757900000000     0.187050000000     0          
H743     H      0.776320000000     0.762640000000     0.228870000000     0          
N744     N      0.127200000000     0.535500000000     0.890500000000     0          
N745     N      0.098900000000     0.503200000000     0.977400000000     0          
N746     N      0.131800000000     0.473900000000     0.890000000000     0          
O747     O      0.026100000000     0.652500000000     0.110200000000     0          
O748     O      0.054800000000     0.683020000000     0.025400000000     0          
O749     O      0.044610000000     0.347290000000     0.110900000000     0          
O750     O      0.073550000000     0.317900000000     0.026800000000     0          
O751     O      0.219100000000     0.480980000000     0.572800000000     0          
O752     O      0.218700000000     0.538630000000     0.570900000000     0          
O753     O      0.990380000000     0.732460000000     0.234100000000     0          
O754     O      0.990390000000     0.792700000000     0.195000000000     0          
O755     O      0.035400000000     0.718700000000     0.148900000000     0          
O756     O      0.945300000000     0.720320000000     0.146000000000     0          
O757     O      0.090000000000     0.761000000000     0.189300000000     0          
O758     O      0.888960000000     0.762000000000     0.196400000000     0          
O759     O      0.023600000000     0.666500000000     0.252200000000     0          
O760     O      0.139900000000     0.508900000000     0.540400000000     0          
H761     H      0.150660000000     0.527310000000     0.542680000000     0          
H762     H      0.154090000000     0.493650000000     0.540460000000     0          
Zr763    Zr     0.689230000000     0.009940000000     0.835770000000     0          
Zr764    Zr     0.763880000000     0.055100000000     0.784950000000     0          
Zr765    Zr     0.763690000000     0.964760000000     0.785840000000     0          
C766     C      0.656400000000     0.952900000000     0.940200000000     0          
C767     C      0.623900000000     0.936600000000     0.971400000000     0          
C768     C      0.624400000000     0.914600000000     0.028700000000     0          
H769     H      0.645350000000     0.908740000000     0.049420000000     0          
C770     C      0.595000000000     0.901200000000     0.055700000000     0          
H771     H      0.596020000000     0.888150000000     0.097210000000     0          
C772     C      0.564400000000     0.906400000000     0.023800000000     0          
C773     C      0.562600000000     0.927300000000     0.961500000000     0          
H774     H      0.541960000000     0.930140000000     0.936980000000     0          
C775     C      0.592900000000     0.943600000000     0.938400000000     0          
H776     H      0.592070000000     0.959080000000     0.900680000000     0          
C777     C      0.346200000000     0.935300000000     0.941200000000     0          
C778     C      0.377800000000     0.922500000000     0.967100000000     0          
C779     C      0.409100000000     0.931400000000     0.938100000000     0          
H780     H      0.409720000000     0.944480000000     0.896590000000     0          
C781     C      0.439800000000     0.921100000000     0.970300000000     0          
H782     H      0.460320000000     0.931500000000     0.956180000000     0          
C783     C      0.440700000000     0.898100000000     0.018300000000     0          
C784     C      0.410000000000     0.887700000000     0.048000000000     0          
H785     H      0.410230000000     0.872060000000     0.085440000000     0          
C786     C      0.379800000000     0.899700000000     0.024100000000     0          
H787     H      0.359610000000     0.892530000000     0.046180000000     0          
C788     C      0.509700000000     0.788100000000     0.402400000000     0          
C789     C      0.508500000000     0.804500000000     0.330600000000     0          
C790     C      0.539600000000     0.814900000000     0.295700000000     0          
H791     H      0.560860000000     0.809920000000     0.316220000000     0          
C792     C      0.538100000000     0.831500000000     0.234500000000     0          
H793     H      0.558540000000     0.838110000000     0.212830000000     0          
C794     C      0.506200000000     0.839700000000     0.199900000000     0          
C795     C      0.476900000000     0.830300000000     0.227100000000     0          
H796     H      0.456200000000     0.834220000000     0.203720000000     0          
C797     C      0.478300000000     0.812900000000     0.297300000000     0          
H798     H      0.457690000000     0.807320000000     0.319710000000     0          
C799     C      0.505300000000     0.860600000000     0.133500000000     0          
C800     C      0.474100000000     0.888300000000     0.056700000000     0          
C801     C      0.532800000000     0.892000000000     0.047200000000     0          
C802     C      0.757900000000     0.175880000000     0.812950000000     0          
H803     H      0.762660000000     0.163940000000     0.771130000000     0          
C804     C      0.757900000000     0.211730000000     0.812950000000     0          
H805     H      0.762640000000     0.223680000000     0.771130000000     0          
N806     N      0.535500000000     0.872800000000     0.109500000000     0          
N807     N      0.503200000000     0.901100000000     0.022600000000     0          
N808     N      0.473900000000     0.868200000000     0.110000000000     0          
O809     O      0.652500000000     0.973900000000     0.889800000000     0          
O810     O      0.683020000000     0.945200000000     0.974600000000     0          
O811     O      0.347290000000     0.955390000000     0.889100000000     0          
O812     O      0.317900000000     0.926450000000     0.973200000000     0          
O813     O      0.480980000000     0.780900000000     0.427200000000     0          
O814     O      0.538630000000     0.781300000000     0.429100000000     0          
O815     O      0.732460000000     0.009620000000     0.765900000000     0          
O816     O      0.792700000000     0.009610000000     0.805000000000     0          
O817     O      0.718700000000     0.964600000000     0.851100000000     0          
O818     O      0.720320000000     0.054700000000     0.854000000000     0          
O819     O      0.761000000000     0.910000000000     0.810700000000     0          
O820     O      0.762000000000     0.111040000000     0.803600000000     0          
O821     O      0.666500000000     0.976400000000     0.747800000000     0          
O822     O      0.508900000000     0.860100000000     0.459600000000     0          
H823     H      0.527310000000     0.849340000000     0.457320000000     0          
H824     H      0.493650000000     0.845910000000     0.459540000000     0          
H825     H      0.742180000000     0.848050000000     0.920470000000     0          
H826     H      0.772910000000     0.848050000000     0.866290000000     0          
H827     H      0.734900000000     0.848050000000     0.838240000000     0          
Zr828    Zr     0.189230000000     0.509940000000     0.335770000000     0          
Zr829    Zr     0.263880000000     0.555100000000     0.284950000000     0          
Zr830    Zr     0.263690000000     0.464760000000     0.285840000000     0          
C831     C      0.156400000000     0.452900000000     0.440200000000     0          
C832     C      0.123900000000     0.436600000000     0.471400000000     0          
C833     C      0.124400000000     0.414600000000     0.528700000000     0          
H834     H      0.145350000000     0.408740000000     0.549420000000     0          
C835     C      0.095000000000     0.401200000000     0.555700000000     0          
H836     H      0.096020000000     0.388150000000     0.597210000000     0          
C837     C      0.064400000000     0.406400000000     0.523800000000     0          
C838     C      0.062600000000     0.427300000000     0.461500000000     0          
H839     H      0.041960000000     0.430140000000     0.436980000000     0          
C840     C      0.092900000000     0.443600000000     0.438400000000     0          
H841     H      0.092070000000     0.459080000000     0.400680000000     0          
C842     C      0.846200000000     0.435300000000     0.441200000000     0          
C843     C      0.877800000000     0.422500000000     0.467100000000     0          
C844     C      0.909100000000     0.431400000000     0.438100000000     0          
H845     H      0.909720000000     0.444480000000     0.396590000000     0          
C846     C      0.939800000000     0.421100000000     0.470300000000     0          
H847     H      0.960320000000     0.431500000000     0.456180000000     0          
C848     C      0.940700000000     0.398100000000     0.518300000000     0          
C849     C      0.910000000000     0.387700000000     0.548000000000     0          
H850     H      0.910230000000     0.372060000000     0.585440000000     0          
C851     C      0.879800000000     0.399700000000     0.524100000000     0          
H852     H      0.859610000000     0.392530000000     0.546180000000     0          
C853     C      0.009700000000     0.288100000000     0.902400000000     0          
C854     C      0.008500000000     0.304500000000     0.830600000000     0          
C855     C      0.039600000000     0.314900000000     0.795700000000     0          
H856     H      0.060860000000     0.309920000000     0.816220000000     0          
C857     C      0.038100000000     0.331500000000     0.734500000000     0          
H858     H      0.058540000000     0.338110000000     0.712830000000     0          
C859     C      0.006200000000     0.339700000000     0.699900000000     0          
C860     C      0.976900000000     0.330300000000     0.727100000000     0          
H861     H      0.956200000000     0.334220000000     0.703720000000     0          
C862     C      0.978300000000     0.312900000000     0.797300000000     0          
H863     H      0.957690000000     0.307320000000     0.819710000000     0          
C864     C      0.005300000000     0.360600000000     0.633500000000     0          
C865     C      0.974100000000     0.388300000000     0.556700000000     0          
C866     C      0.032800000000     0.392000000000     0.547200000000     0          
C867     C      0.257900000000     0.675880000000     0.312950000000     0          
H868     H      0.262660000000     0.663940000000     0.271130000000     0          
C869     C      0.257900000000     0.711730000000     0.312950000000     0          
H870     H      0.262640000000     0.723680000000     0.271130000000     0          
N871     N      0.035500000000     0.372800000000     0.609500000000     0          
N872     N      0.003200000000     0.401100000000     0.522600000000     0          
N873     N      0.973900000000     0.368200000000     0.610000000000     0          
O874     O      0.152500000000     0.473900000000     0.389800000000     0          
O875     O      0.183020000000     0.445200000000     0.474600000000     0          
O876     O      0.847290000000     0.455390000000     0.389100000000     0          
O877     O      0.817900000000     0.426450000000     0.473200000000     0          
O878     O      0.980980000000     0.280900000000     0.927200000000     0          
O879     O      0.038630000000     0.281300000000     0.929100000000     0          
O880     O      0.232460000000     0.509620000000     0.265900000000     0          
O881     O      0.292700000000     0.509610000000     0.305000000000     0          
O882     O      0.218700000000     0.464600000000     0.351100000000     0          
O883     O      0.220320000000     0.554700000000     0.354000000000     0          
O884     O      0.261000000000     0.410000000000     0.310700000000     0          
O885     O      0.262000000000     0.611040000000     0.303600000000     0          
O886     O      0.166500000000     0.476400000000     0.247800000000     0          
O887     O      0.008900000000     0.360100000000     0.959600000000     0          
H888     H      0.027310000000     0.349340000000     0.957320000000     0          
H889     H      0.993650000000     0.345910000000     0.959540000000     0          
H890     H      0.242180000000     0.348050000000     0.420470000000     0          
H891     H      0.272910000000     0.348050000000     0.366290000000     0          
H892     H      0.234900000000     0.348050000000     0.338240000000     0          
Zr893    Zr     0.310770000000     0.990060000000     0.835770000000     0          
Zr894    Zr     0.236120000000     0.944900000000     0.784950000000     0          
Zr895    Zr     0.236310000000     0.035240000000     0.785840000000     0          
C896     C      0.343600000000     0.047100000000     0.940200000000     0          
C897     C      0.376100000000     0.063400000000     0.971400000000     0          
C898     C      0.375600000000     0.085400000000     0.028700000000     0          
H899     H      0.354650000000     0.091260000000     0.049420000000     0          
C900     C      0.405000000000     0.098800000000     0.055700000000     0          
H901     H      0.403980000000     0.111850000000     0.097210000000     0          
C902     C      0.435600000000     0.093600000000     0.023800000000     0          
C903     C      0.437400000000     0.072700000000     0.961500000000     0          
H904     H      0.458040000000     0.069860000000     0.936980000000     0          
C905     C      0.407100000000     0.056400000000     0.938400000000     0          
H906     H      0.407930000000     0.040920000000     0.900680000000     0          
C907     C      0.653800000000     0.064700000000     0.941200000000     0          
C908     C      0.622200000000     0.077500000000     0.967100000000     0          
C909     C      0.590900000000     0.068600000000     0.938100000000     0          
H910     H      0.590280000000     0.055520000000     0.896590000000     0          
C911     C      0.560200000000     0.078900000000     0.970300000000     0          
H912     H      0.539680000000     0.068500000000     0.956180000000     0          
C913     C      0.559300000000     0.101900000000     0.018300000000     0          
C914     C      0.590000000000     0.112300000000     0.048000000000     0          
H915     H      0.589770000000     0.127940000000     0.085440000000     0          
C916     C      0.620200000000     0.100300000000     0.024100000000     0          
H917     H      0.640390000000     0.107470000000     0.046180000000     0          
C918     C      0.490300000000     0.211900000000     0.402400000000     0          
C919     C      0.491500000000     0.195500000000     0.330600000000     0          
C920     C      0.460400000000     0.185100000000     0.295700000000     0          
H921     H      0.439140000000     0.190080000000     0.316220000000     0          
C922     C      0.461900000000     0.168500000000     0.234500000000     0          
H923     H      0.441460000000     0.161890000000     0.212830000000     0          
C924     C      0.493800000000     0.160300000000     0.199900000000     0          
C925     C      0.523100000000     0.169700000000     0.227100000000     0          
H926     H      0.543800000000     0.165780000000     0.203720000000     0          
C927     C      0.521700000000     0.187100000000     0.297300000000     0          
H928     H      0.542310000000     0.192680000000     0.319710000000     0          
C929     C      0.494700000000     0.139400000000     0.133500000000     0          
C930     C      0.525900000000     0.111700000000     0.056700000000     0          
C931     C      0.467200000000     0.108000000000     0.047200000000     0          
C932     C      0.242100000000     0.824120000000     0.812950000000     0          
H933     H      0.237340000000     0.836060000000     0.771130000000     0          
C934     C      0.242100000000     0.788270000000     0.812950000000     0          
H935     H      0.237360000000     0.776320000000     0.771130000000     0          
N936     N      0.464500000000     0.127200000000     0.109500000000     0          
N937     N      0.496800000000     0.098900000000     0.022600000000     0          
N938     N      0.526100000000     0.131800000000     0.110000000000     0          
O939     O      0.347500000000     0.026100000000     0.889800000000     0          
O940     O      0.316980000000     0.054800000000     0.974600000000     0          
O941     O      0.652710000000     0.044610000000     0.889100000000     0          
O942     O      0.682100000000     0.073550000000     0.973200000000     0          
O943     O      0.519020000000     0.219100000000     0.427200000000     0          
O944     O      0.461370000000     0.218700000000     0.429100000000     0          
O945     O      0.267540000000     0.990380000000     0.765900000000     0          
O946     O      0.207300000000     0.990390000000     0.805000000000     0          
O947     O      0.281300000000     0.035400000000     0.851100000000     0          
O948     O      0.279680000000     0.945300000000     0.854000000000     0          
O949     O      0.239000000000     0.090000000000     0.810700000000     0          
O950     O      0.238000000000     0.888960000000     0.803600000000     0          
O951     O      0.333500000000     0.023600000000     0.747800000000     0          
O952     O      0.491100000000     0.139900000000     0.459600000000     0          
H953     H      0.472690000000     0.150660000000     0.457320000000     0          
H954     H      0.506350000000     0.154090000000     0.459540000000     0          
Zr955    Zr     0.810770000000     0.490060000000     0.335770000000     0          
Zr956    Zr     0.736120000000     0.444900000000     0.284950000000     0          
Zr957    Zr     0.736310000000     0.535240000000     0.285840000000     0          
C958     C      0.843600000000     0.547100000000     0.440200000000     0          
C959     C      0.876100000000     0.563400000000     0.471400000000     0          
C960     C      0.875600000000     0.585400000000     0.528700000000     0          
H961     H      0.854650000000     0.591260000000     0.549420000000     0          
C962     C      0.905000000000     0.598800000000     0.555700000000     0          
H963     H      0.903980000000     0.611850000000     0.597210000000     0          
C964     C      0.935600000000     0.593600000000     0.523800000000     0          
C965     C      0.937400000000     0.572700000000     0.461500000000     0          
H966     H      0.958040000000     0.569860000000     0.436980000000     0          
C967     C      0.907100000000     0.556400000000     0.438400000000     0          
H968     H      0.907930000000     0.540920000000     0.400680000000     0          
C969     C      0.153800000000     0.564700000000     0.441200000000     0          
C970     C      0.122200000000     0.577500000000     0.467100000000     0          
C971     C      0.090900000000     0.568600000000     0.438100000000     0          
H972     H      0.090280000000     0.555520000000     0.396590000000     0          
C973     C      0.060200000000     0.578900000000     0.470300000000     0          
H974     H      0.039680000000     0.568500000000     0.456180000000     0          
C975     C      0.059300000000     0.601900000000     0.518300000000     0          
C976     C      0.090000000000     0.612300000000     0.548000000000     0          
H977     H      0.089770000000     0.627940000000     0.585440000000     0          
C978     C      0.120200000000     0.600300000000     0.524100000000     0          
H979     H      0.140390000000     0.607470000000     0.546180000000     0          
C980     C      0.990300000000     0.711900000000     0.902400000000     0          
C981     C      0.991500000000     0.695500000000     0.830600000000     0          
C982     C      0.960400000000     0.685100000000     0.795700000000     0          
H983     H      0.939140000000     0.690080000000     0.816220000000     0          
C984     C      0.961900000000     0.668500000000     0.734500000000     0          
H985     H      0.941460000000     0.661890000000     0.712830000000     0          
C986     C      0.993800000000     0.660300000000     0.699900000000     0          
C987     C      0.023100000000     0.669700000000     0.727100000000     0          
H988     H      0.043800000000     0.665780000000     0.703720000000     0          
C989     C      0.021700000000     0.687100000000     0.797300000000     0          
H990     H      0.042310000000     0.692680000000     0.819710000000     0          
C991     C      0.994700000000     0.639400000000     0.633500000000     0          
C992     C      0.025900000000     0.611700000000     0.556700000000     0          
C993     C      0.967200000000     0.608000000000     0.547200000000     0          
C994     C      0.742100000000     0.324120000000     0.312950000000     0          
H995     H      0.737340000000     0.336060000000     0.271130000000     0          
C996     C      0.742100000000     0.288270000000     0.312950000000     0          
H997     H      0.737360000000     0.276320000000     0.271130000000     0          
N998     N      0.964500000000     0.627200000000     0.609500000000     0          
N999     N      0.996800000000     0.598900000000     0.522600000000     0          
N1000    N      0.026100000000     0.631800000000     0.610000000000     0          
O1001    O      0.847500000000     0.526100000000     0.389800000000     0          
O1002    O      0.816980000000     0.554800000000     0.474600000000     0          
O1003    O      0.152710000000     0.544610000000     0.389100000000     0          
O1004    O      0.182100000000     0.573550000000     0.473200000000     0          
O1005    O      0.019020000000     0.719100000000     0.927200000000     0          
O1006    O      0.961370000000     0.718700000000     0.929100000000     0          
O1007    O      0.767540000000     0.490380000000     0.265900000000     0          
O1008    O      0.707300000000     0.490390000000     0.305000000000     0          
O1009    O      0.781300000000     0.535400000000     0.351100000000     0          
O1010    O      0.779680000000     0.445300000000     0.354000000000     0          
O1011    O      0.739000000000     0.590000000000     0.310700000000     0          
O1012    O      0.738000000000     0.388960000000     0.303600000000     0          
O1013    O      0.833500000000     0.523600000000     0.247800000000     0          
O1014    O      0.991100000000     0.639900000000     0.959600000000     0          
H1015    H      0.972690000000     0.650660000000     0.957320000000     0          
H1016    H      0.006350000000     0.654090000000     0.959540000000     0          
C1017    C      0.106400000000     0.750000000000     0.125000000000     0          
C1018    C      0.143700000000     0.750000000000     0.125000000000     0          
C1019    C      0.880900000000     0.750000000000     0.125000000000     0          
C1020    C      0.842100000000     0.750000000000     0.125000000000     0          
C1021    C      0.770290000000     0.750000000000     0.125000000000     0          
H1022    H      0.746360000000     0.750000000000     0.125000000000     0          
C1023    C      0.893600000000     0.250000000000     0.125000000000     0          
C1024    C      0.856300000000     0.250000000000     0.125000000000     0          
C1025    C      0.119100000000     0.250000000000     0.125000000000     0          
C1026    C      0.157900000000     0.250000000000     0.125000000000     0          
C1027    C      0.229710000000     0.250000000000     0.125000000000     0          
H1028    H      0.253640000000     0.250000000000     0.125000000000     0          
C1029    C      0.750000000000     0.893600000000     0.875000000000     0          
C1030    C      0.750000000000     0.856300000000     0.875000000000     0          
C1031    C      0.750000000000     0.119100000000     0.875000000000     0          
C1032    C      0.750000000000     0.157900000000     0.875000000000     0          
C1033    C      0.750000000000     0.229710000000     0.875000000000     0          
H1034    H      0.750000000000     0.253640000000     0.875000000000     0          
C1035    C      0.250000000000     0.393600000000     0.375000000000     0          
C1036    C      0.250000000000     0.356300000000     0.375000000000     0          
C1037    C      0.250000000000     0.619100000000     0.375000000000     0          
C1038    C      0.250000000000     0.657900000000     0.375000000000     0          
C1039    C      0.250000000000     0.729710000000     0.375000000000     0          
H1040    H      0.250000000000     0.753640000000     0.375000000000     0          
C1041    C      0.250000000000     0.106400000000     0.875000000000     0          
C1042    C      0.250000000000     0.143700000000     0.875000000000     0          
C1043    C      0.250000000000     0.880900000000     0.875000000000     0          
C1044    C      0.250000000000     0.842100000000     0.875000000000     0          
C1045    C      0.250000000000     0.770290000000     0.875000000000     0          
H1046    H      0.250000000000     0.746360000000     0.875000000000     0          
C1047    C      0.750000000000     0.606400000000     0.375000000000     0          
C1048    C      0.750000000000     0.643700000000     0.375000000000     0          
C1049    C      0.750000000000     0.380900000000     0.375000000000     0          
C1050    C      0.750000000000     0.342100000000     0.375000000000     0          
C1051    C      0.750000000000     0.270290000000     0.375000000000     0          
H1052    H      0.750000000000     0.246360000000     0.375000000000     0          
C1053    C      0.393600000000     0.750000000000     0.625000000000     0          
C1054    C      0.356300000000     0.750000000000     0.625000000000     0          
C1055    C      0.619100000000     0.750000000000     0.625000000000     0          
C1056    C      0.657900000000     0.750000000000     0.625000000000     0          
C1057    C      0.729710000000     0.750000000000     0.625000000000     0          
H1058    H      0.753640000000     0.750000000000     0.625000000000     0          
C1059    C      0.606400000000     0.250000000000     0.625000000000     0          
C1060    C      0.643700000000     0.250000000000     0.625000000000     0          
C1061    C      0.380900000000     0.250000000000     0.625000000000     0          
C1062    C      0.342100000000     0.250000000000     0.625000000000     0          
C1063    C      0.270290000000     0.250000000000     0.625000000000     0          
H1064    H      0.246360000000     0.250000000000     0.625000000000     0          


