data_GAYXEM

_audit_creation_method RASPA-1.0
_audit_creation_date 2020-11-2
_audit_author_name 'Rocio Bueno-Perez'

_cell_length_a    20.707
_cell_length_b    20.707
_cell_length_c    66.9823
_cell_angle_alpha 90
_cell_angle_beta  90
_cell_angle_gamma 90
_cell_volume      28720.7

_symmetry_cell_setting          tetragonal
_symmetry_space_group_name_Hall 'P 1'
_symmetry_space_group_name_H-M  'P 1'
_symmetry_Int_Tables_number     1

_symmetry_equiv_pos_as_xyz 'x,y,z'

loop_
_atom_site_label
_atom_site_type_symbol
_atom_site_fract_x
_atom_site_fract_y
_atom_site_fract_z
_atom_site_charge
O1       O      0.434700000000     0.685700000000     0.428490000000     0          
C1       C      0.389600000000     0.650100000000     0.422830000000     0          
O4       O      0.370900000000     0.643500000000     0.405320000000     0          
C2       C      0.350400000000     0.621800000000     0.438780000000     0          
C3       C      0.294700000000     0.587100000000     0.434340000000     0          
C4       C      0.367500000000     0.631000000000     0.458490000000     0          
H1       H      0.281700000000     0.582300000000     0.420800000000     0          
C5       C      0.258400000000     0.559700000000     0.449110000000     0          
C6       C      0.330500000000     0.597800000000     0.473070000000     0          
H2       H      0.402400000000     0.658400000000     0.462100000000     0          
H3       H      0.219600000000     0.537900000000     0.445700000000     0          
C7       C      0.276600000000     0.563200000000     0.468600000000     0          
H4       H      0.344000000000     0.599900000000     0.486600000000     0          
C8       C      0.238700000000     0.529400000000     0.484550000000     0          
C10      C      0.173700000000     0.527600000000     0.483880000000     0          
H6       H      0.151100000000     0.544700000000     0.472700000000     0          
C13      C      0.039600000000     0.490700000000     0.480240000000     0          
H7       H      0.064800000000     0.485200000000     0.468500000000     0          
Zr1      Zr     0.500000000000     0.750000000000     0.411420000000     0          
O2       O      0.427200000000     0.750000000000     0.390680000000     0          
O3       O      0.500000000000     0.653700000000     0.394850000000     0          
Zr2      Zr     0.415500000000     0.665500000000     0.375000000000     0          
C9       C      0.270400000000     0.500000000000     0.500000000000     0          
H5       H      0.316300000000     0.500000000000     0.500000000000     0          
C11      C      0.139900000000     0.500000000000     0.500000000000     0          
C12      C      0.067600000000     0.500000000000     0.500000000000     0          
O1       O      0.564300000000     0.184700000000     0.678490000000     0          
C1       C      0.599900000000     0.139600000000     0.672830000000     0          
O4       O      0.606500000000     0.120900000000     0.655320000000     0          
C2       C      0.628200000000     0.100400000000     0.688780000000     0          
C3       C      0.662900000000     0.044700000000     0.684340000000     0          
C4       C      0.619000000000     0.117500000000     0.708490000000     0          
H1       H      0.667700000000     0.031700000000     0.670800000000     0          
C5       C      0.690300000000     0.008400000000     0.699110000000     0          
C6       C      0.652200000000     0.080500000000     0.723070000000     0          
H2       H      0.591600000000     0.152400000000     0.712100000000     0          
H3       H      0.712100000000     0.969600000000     0.695700000000     0          
C7       C      0.686800000000     0.026600000000     0.718600000000     0          
H4       H      0.650100000000     0.094000000000     0.736600000000     0          
C8       C      0.720600000000     0.988700000000     0.734550000000     0          
C10      C      0.722400000000     0.923700000000     0.733880000000     0          
H6       H      0.705300000000     0.901100000000     0.722700000000     0          
C13      C      0.759300000000     0.789600000000     0.730240000000     0          
H7       H      0.764800000000     0.814800000000     0.718500000000     0          
Zr1      Zr     0.500000000000     0.250000000000     0.661420000000     0          
O2       O      0.500000000000     0.177200000000     0.640680000000     0          
O3       O      0.596300000000     0.250000000000     0.644850000000     0          
Zr2      Zr     0.584500000000     0.165500000000     0.625000000000     0          
C9       C      0.750000000000     0.020400000000     0.750000000000     0          
H5       H      0.750000000000     0.066300000000     0.750000000000     0          
C11      C      0.750000000000     0.889900000000     0.750000000000     0          
C12      C      0.750000000000     0.817600000000     0.750000000000     0          
O1       O      0.065300000000     0.314300000000     0.928490000000     0          
C1       C      0.110400000000     0.349900000000     0.922830000000     0          
O4       O      0.129100000000     0.356500000000     0.905320000000     0          
C2       C      0.149600000000     0.378200000000     0.938780000000     0          
C3       C      0.205300000000     0.412900000000     0.934340000000     0          
C4       C      0.132500000000     0.369000000000     0.958490000000     0          
H1       H      0.218300000000     0.417700000000     0.920800000000     0          
C5       C      0.241600000000     0.440300000000     0.949110000000     0          
C6       C      0.169500000000     0.402200000000     0.973070000000     0          
H2       H      0.097600000000     0.341600000000     0.962100000000     0          
H3       H      0.280400000000     0.462100000000     0.945700000000     0          
C7       C      0.223400000000     0.436800000000     0.968600000000     0          
H4       H      0.156000000000     0.400100000000     0.986600000000     0          
C8       C      0.261300000000     0.470600000000     0.984550000000     0          
C10      C      0.326300000000     0.472400000000     0.983880000000     0          
H6       H      0.348900000000     0.455300000000     0.972700000000     0          
C13      C      0.460400000000     0.509300000000     0.980240000000     0          
H7       H      0.435200000000     0.514800000000     0.968500000000     0          
Zr1      Zr     0.000000000000     0.250000000000     0.911420000000     0          
O2       O      0.072800000000     0.250000000000     0.890680000000     0          
O3       O      0.000000000000     0.346300000000     0.894850000000     0          
Zr2      Zr     0.084500000000     0.334500000000     0.875000000000     0          
C9       C      0.229600000000     0.500000000000     0.000000000000     0          
H5       H      0.183700000000     0.500000000000     0.000000000000     0          
C11      C      0.360100000000     0.500000000000     0.000000000000     0          
C12      C      0.432400000000     0.500000000000     0.000000000000     0          
O1       O      0.935700000000     0.815300000000     0.178490000000     0          
C1       C      0.900100000000     0.860400000000     0.172830000000     0          
O4       O      0.893500000000     0.879100000000     0.155320000000     0          
C2       C      0.871800000000     0.899600000000     0.188780000000     0          
C3       C      0.837100000000     0.955300000000     0.184340000000     0          
C4       C      0.881000000000     0.882500000000     0.208490000000     0          
H1       H      0.832300000000     0.968300000000     0.170800000000     0          
C5       C      0.809700000000     0.991600000000     0.199110000000     0          
C6       C      0.847800000000     0.919500000000     0.223070000000     0          
H2       H      0.908400000000     0.847600000000     0.212100000000     0          
H3       H      0.787900000000     0.030400000000     0.195700000000     0          
C7       C      0.813200000000     0.973400000000     0.218600000000     0          
H4       H      0.849900000000     0.906000000000     0.236600000000     0          
C8       C      0.779400000000     0.011300000000     0.234550000000     0          
C10      C      0.777600000000     0.076300000000     0.233880000000     0          
H6       H      0.794700000000     0.098900000000     0.222700000000     0          
C13      C      0.740700000000     0.210400000000     0.230240000000     0          
H7       H      0.735200000000     0.185200000000     0.218500000000     0          
Zr1      Zr     0.000000000000     0.750000000000     0.161420000000     0          
O2       O      0.000000000000     0.822800000000     0.140680000000     0          
O3       O      0.903700000000     0.750000000000     0.144850000000     0          
Zr2      Zr     0.915500000000     0.834500000000     0.125000000000     0          
C9       C      0.750000000000     0.979600000000     0.250000000000     0          
H5       H      0.750000000000     0.933700000000     0.250000000000     0          
C11      C      0.750000000000     0.110100000000     0.250000000000     0          
C12      C      0.750000000000     0.182400000000     0.250000000000     0          
O1       O      0.434700000000     0.314300000000     0.571510000000     0          
C1       C      0.389600000000     0.349900000000     0.577170000000     0          
O4       O      0.370900000000     0.356500000000     0.594680000000     0          
C2       C      0.350400000000     0.378200000000     0.561220000000     0          
C3       C      0.294700000000     0.412900000000     0.565660000000     0          
C4       C      0.367500000000     0.369000000000     0.541510000000     0          
H1       H      0.281700000000     0.417700000000     0.579200000000     0          
C5       C      0.258400000000     0.440300000000     0.550890000000     0          
C6       C      0.330500000000     0.402200000000     0.526930000000     0          
H2       H      0.402400000000     0.341600000000     0.537900000000     0          
H3       H      0.219600000000     0.462100000000     0.554300000000     0          
C7       C      0.276600000000     0.436800000000     0.531400000000     0          
H4       H      0.344000000000     0.400100000000     0.513400000000     0          
C8       C      0.238700000000     0.470600000000     0.515450000000     0          
C10      C      0.173700000000     0.472400000000     0.516120000000     0          
H6       H      0.151100000000     0.455300000000     0.527300000000     0          
C13      C      0.039600000000     0.509300000000     0.519760000000     0          
H7       H      0.064800000000     0.514800000000     0.531500000000     0          
Zr1      Zr     0.500000000000     0.250000000000     0.588580000000     0          
O2       O      0.427200000000     0.250000000000     0.609320000000     0          
O3       O      0.500000000000     0.346300000000     0.605150000000     0          
Zr2      Zr     0.415500000000     0.334500000000     0.625000000000     0          
O1       O      0.935700000000     0.184700000000     0.821510000000     0          
C1       C      0.900100000000     0.139600000000     0.827170000000     0          
O4       O      0.893500000000     0.120900000000     0.844680000000     0          
C2       C      0.871800000000     0.100400000000     0.811220000000     0          
C3       C      0.837100000000     0.044700000000     0.815660000000     0          
C4       C      0.881000000000     0.117500000000     0.791510000000     0          
H1       H      0.832300000000     0.031700000000     0.829200000000     0          
C5       C      0.809700000000     0.008400000000     0.800890000000     0          
C6       C      0.847800000000     0.080500000000     0.776930000000     0          
H2       H      0.908400000000     0.152400000000     0.787900000000     0          
H3       H      0.787900000000     0.969600000000     0.804300000000     0          
C7       C      0.813200000000     0.026600000000     0.781400000000     0          
H4       H      0.849900000000     0.094000000000     0.763400000000     0          
C8       C      0.779400000000     0.988700000000     0.765450000000     0          
C10      C      0.777600000000     0.923700000000     0.766120000000     0          
H6       H      0.794700000000     0.901100000000     0.777300000000     0          
C13      C      0.740700000000     0.789600000000     0.769760000000     0          
H7       H      0.735200000000     0.814800000000     0.781500000000     0          
Zr1      Zr     0.000000000000     0.250000000000     0.838580000000     0          
O2       O      0.000000000000     0.177200000000     0.859320000000     0          
O3       O      0.903700000000     0.250000000000     0.855150000000     0          
Zr2      Zr     0.915500000000     0.165500000000     0.875000000000     0          
O1       O      0.065300000000     0.685700000000     0.071510000000     0          
C1       C      0.110400000000     0.650100000000     0.077170000000     0          
O4       O      0.129100000000     0.643500000000     0.094680000000     0          
C2       C      0.149600000000     0.621800000000     0.061220000000     0          
C3       C      0.205300000000     0.587100000000     0.065660000000     0          
C4       C      0.132500000000     0.631000000000     0.041510000000     0          
H1       H      0.218300000000     0.582300000000     0.079200000000     0          
C5       C      0.241600000000     0.559700000000     0.050890000000     0          
C6       C      0.169500000000     0.597800000000     0.026930000000     0          
H2       H      0.097600000000     0.658400000000     0.037900000000     0          
H3       H      0.280400000000     0.537900000000     0.054300000000     0          
C7       C      0.223400000000     0.563200000000     0.031400000000     0          
H4       H      0.156000000000     0.599900000000     0.013400000000     0          
C8       C      0.261300000000     0.529400000000     0.015450000000     0          
C10      C      0.326300000000     0.527600000000     0.016120000000     0          
H6       H      0.348900000000     0.544700000000     0.027300000000     0          
C13      C      0.460400000000     0.490700000000     0.019760000000     0          
H7       H      0.435200000000     0.485200000000     0.031500000000     0          
Zr1      Zr     0.000000000000     0.750000000000     0.088580000000     0          
O2       O      0.072800000000     0.750000000000     0.109320000000     0          
O3       O      0.000000000000     0.653700000000     0.105150000000     0          
Zr2      Zr     0.084500000000     0.665500000000     0.125000000000     0          
O1       O      0.564300000000     0.815300000000     0.321510000000     0          
C1       C      0.599900000000     0.860400000000     0.327170000000     0          
O4       O      0.606500000000     0.879100000000     0.344680000000     0          
C2       C      0.628200000000     0.899600000000     0.311220000000     0          
C3       C      0.662900000000     0.955300000000     0.315660000000     0          
C4       C      0.619000000000     0.882500000000     0.291510000000     0          
H1       H      0.667700000000     0.968300000000     0.329200000000     0          
C5       C      0.690300000000     0.991600000000     0.300890000000     0          
C6       C      0.652200000000     0.919500000000     0.276930000000     0          
H2       H      0.591600000000     0.847600000000     0.287900000000     0          
H3       H      0.712100000000     0.030400000000     0.304300000000     0          
C7       C      0.686800000000     0.973400000000     0.281400000000     0          
H4       H      0.650100000000     0.906000000000     0.263400000000     0          
C8       C      0.720600000000     0.011300000000     0.265450000000     0          
C10      C      0.722400000000     0.076300000000     0.266120000000     0          
H6       H      0.705300000000     0.098900000000     0.277300000000     0          
C13      C      0.759300000000     0.210400000000     0.269760000000     0          
H7       H      0.764800000000     0.185200000000     0.281500000000     0          
Zr1      Zr     0.500000000000     0.750000000000     0.338580000000     0          
O2       O      0.500000000000     0.822800000000     0.359320000000     0          
O3       O      0.596300000000     0.750000000000     0.355150000000     0          
Zr2      Zr     0.584500000000     0.834500000000     0.375000000000     0          
O1       O      0.565300000000     0.314300000000     0.571510000000     0          
C1       C      0.610400000000     0.349900000000     0.577170000000     0          
O4       O      0.629100000000     0.356500000000     0.594680000000     0          
C2       C      0.649600000000     0.378200000000     0.561220000000     0          
C3       C      0.705300000000     0.412900000000     0.565660000000     0          
C4       C      0.632500000000     0.369000000000     0.541510000000     0          
H1       H      0.718300000000     0.417700000000     0.579200000000     0          
C5       C      0.741600000000     0.440300000000     0.550890000000     0          
C6       C      0.669500000000     0.402200000000     0.526930000000     0          
H2       H      0.597600000000     0.341600000000     0.537900000000     0          
H3       H      0.780400000000     0.462100000000     0.554300000000     0          
C7       C      0.723400000000     0.436800000000     0.531400000000     0          
H4       H      0.656000000000     0.400100000000     0.513400000000     0          
C8       C      0.761300000000     0.470600000000     0.515450000000     0          
C10      C      0.826300000000     0.472400000000     0.516120000000     0          
H6       H      0.848900000000     0.455300000000     0.527300000000     0          
C13      C      0.960400000000     0.509300000000     0.519760000000     0          
H7       H      0.935200000000     0.514800000000     0.531500000000     0          
O2       O      0.572800000000     0.250000000000     0.609320000000     0          
Zr2      Zr     0.584500000000     0.334500000000     0.625000000000     0          
C9       C      0.729600000000     0.500000000000     0.500000000000     0          
H5       H      0.683700000000     0.500000000000     0.500000000000     0          
C11      C      0.860100000000     0.500000000000     0.500000000000     0          
C12      C      0.932400000000     0.500000000000     0.500000000000     0          
O1       O      0.435700000000     0.815300000000     0.321510000000     0          
C1       C      0.400100000000     0.860400000000     0.327170000000     0          
O4       O      0.393500000000     0.879100000000     0.344680000000     0          
C2       C      0.371800000000     0.899600000000     0.311220000000     0          
C3       C      0.337100000000     0.955300000000     0.315660000000     0          
C4       C      0.381000000000     0.882500000000     0.291510000000     0          
H1       H      0.332300000000     0.968300000000     0.329200000000     0          
C5       C      0.309700000000     0.991600000000     0.300890000000     0          
C6       C      0.347800000000     0.919500000000     0.276930000000     0          
H2       H      0.408400000000     0.847600000000     0.287900000000     0          
H3       H      0.287900000000     0.030400000000     0.304300000000     0          
C7       C      0.313200000000     0.973400000000     0.281400000000     0          
H4       H      0.349900000000     0.906000000000     0.263400000000     0          
C8       C      0.279400000000     0.011300000000     0.265450000000     0          
C10      C      0.277600000000     0.076300000000     0.266120000000     0          
H6       H      0.294700000000     0.098900000000     0.277300000000     0          
C13      C      0.240700000000     0.210400000000     0.269760000000     0          
H7       H      0.235200000000     0.185200000000     0.281500000000     0          
O3       O      0.403700000000     0.750000000000     0.355150000000     0          
Zr2      Zr     0.415500000000     0.834500000000     0.375000000000     0          
C9       C      0.250000000000     0.979600000000     0.250000000000     0          
H5       H      0.250000000000     0.933700000000     0.250000000000     0          
C11      C      0.250000000000     0.110100000000     0.250000000000     0          
C12      C      0.250000000000     0.182400000000     0.250000000000     0          
O1       O      0.934700000000     0.685700000000     0.071510000000     0          
C1       C      0.889600000000     0.650100000000     0.077170000000     0          
O4       O      0.870900000000     0.643500000000     0.094680000000     0          
C2       C      0.850400000000     0.621800000000     0.061220000000     0          
C3       C      0.794700000000     0.587100000000     0.065660000000     0          
C4       C      0.867500000000     0.631000000000     0.041510000000     0          
H1       H      0.781700000000     0.582300000000     0.079200000000     0          
C5       C      0.758400000000     0.559700000000     0.050890000000     0          
C6       C      0.830500000000     0.597800000000     0.026930000000     0          
H2       H      0.902400000000     0.658400000000     0.037900000000     0          
H3       H      0.719600000000     0.537900000000     0.054300000000     0          
C7       C      0.776600000000     0.563200000000     0.031400000000     0          
H4       H      0.844000000000     0.599900000000     0.013400000000     0          
C8       C      0.738700000000     0.529400000000     0.015450000000     0          
C10      C      0.673700000000     0.527600000000     0.016120000000     0          
H6       H      0.651100000000     0.544700000000     0.027300000000     0          
C13      C      0.539600000000     0.490700000000     0.019760000000     0          
H7       H      0.564800000000     0.485200000000     0.031500000000     0          
O2       O      0.927200000000     0.750000000000     0.109320000000     0          
Zr2      Zr     0.915500000000     0.665500000000     0.125000000000     0          
C9       C      0.770400000000     0.500000000000     0.000000000000     0          
H5       H      0.816300000000     0.500000000000     0.000000000000     0          
C11      C      0.639900000000     0.500000000000     0.000000000000     0          
C12      C      0.567600000000     0.500000000000     0.000000000000     0          
O1       O      0.064300000000     0.184700000000     0.821510000000     0          
C1       C      0.099900000000     0.139600000000     0.827170000000     0          
O4       O      0.106500000000     0.120900000000     0.844680000000     0          
C2       C      0.128200000000     0.100400000000     0.811220000000     0          
C3       C      0.162900000000     0.044700000000     0.815660000000     0          
C4       C      0.119000000000     0.117500000000     0.791510000000     0          
H1       H      0.167700000000     0.031700000000     0.829200000000     0          
C5       C      0.190300000000     0.008400000000     0.800890000000     0          
C6       C      0.152200000000     0.080500000000     0.776930000000     0          
H2       H      0.091600000000     0.152400000000     0.787900000000     0          
H3       H      0.212100000000     0.969600000000     0.804300000000     0          
C7       C      0.186800000000     0.026600000000     0.781400000000     0          
H4       H      0.150100000000     0.094000000000     0.763400000000     0          
C8       C      0.220600000000     0.988700000000     0.765450000000     0          
C10      C      0.222400000000     0.923700000000     0.766120000000     0          
H6       H      0.205300000000     0.901100000000     0.777300000000     0          
C13      C      0.259300000000     0.789600000000     0.769760000000     0          
H7       H      0.264800000000     0.814800000000     0.781500000000     0          
O3       O      0.096300000000     0.250000000000     0.855150000000     0          
Zr2      Zr     0.084500000000     0.165500000000     0.875000000000     0          
C9       C      0.250000000000     0.020400000000     0.750000000000     0          
H5       H      0.250000000000     0.066300000000     0.750000000000     0          
C11      C      0.250000000000     0.889900000000     0.750000000000     0          
C12      C      0.250000000000     0.817600000000     0.750000000000     0          
O1       O      0.565300000000     0.685700000000     0.428490000000     0          
C1       C      0.610400000000     0.650100000000     0.422830000000     0          
O4       O      0.629100000000     0.643500000000     0.405320000000     0          
C2       C      0.649600000000     0.621800000000     0.438780000000     0          
C3       C      0.705300000000     0.587100000000     0.434340000000     0          
C4       C      0.632500000000     0.631000000000     0.458490000000     0          
H1       H      0.718300000000     0.582300000000     0.420800000000     0          
C5       C      0.741600000000     0.559700000000     0.449110000000     0          
C6       C      0.669500000000     0.597800000000     0.473070000000     0          
H2       H      0.597600000000     0.658400000000     0.462100000000     0          
H3       H      0.780400000000     0.537900000000     0.445700000000     0          
C7       C      0.723400000000     0.563200000000     0.468600000000     0          
H4       H      0.656000000000     0.599900000000     0.486600000000     0          
C8       C      0.761300000000     0.529400000000     0.484550000000     0          
C10      C      0.826300000000     0.527600000000     0.483880000000     0          
H6       H      0.848900000000     0.544700000000     0.472700000000     0          
C13      C      0.960400000000     0.490700000000     0.480240000000     0          
H7       H      0.935200000000     0.485200000000     0.468500000000     0          
O2       O      0.572800000000     0.750000000000     0.390680000000     0          
Zr2      Zr     0.584500000000     0.665500000000     0.375000000000     0          
O1       O      0.064300000000     0.815300000000     0.178490000000     0          
C1       C      0.099900000000     0.860400000000     0.172830000000     0          
O4       O      0.106500000000     0.879100000000     0.155320000000     0          
C2       C      0.128200000000     0.899600000000     0.188780000000     0          
C3       C      0.162900000000     0.955300000000     0.184340000000     0          
C4       C      0.119000000000     0.882500000000     0.208490000000     0          
H1       H      0.167700000000     0.968300000000     0.170800000000     0          
C5       C      0.190300000000     0.991600000000     0.199110000000     0          
C6       C      0.152200000000     0.919500000000     0.223070000000     0          
H2       H      0.091600000000     0.847600000000     0.212100000000     0          
H3       H      0.212100000000     0.030400000000     0.195700000000     0          
C7       C      0.186800000000     0.973400000000     0.218600000000     0          
H4       H      0.150100000000     0.906000000000     0.236600000000     0          
C8       C      0.220600000000     0.011300000000     0.234550000000     0          
C10      C      0.222400000000     0.076300000000     0.233880000000     0          
H6       H      0.205300000000     0.098900000000     0.222700000000     0          
C13      C      0.259300000000     0.210400000000     0.230240000000     0          
H7       H      0.264800000000     0.185200000000     0.218500000000     0          
O3       O      0.096300000000     0.750000000000     0.144850000000     0          
Zr2      Zr     0.084500000000     0.834500000000     0.125000000000     0          
O1       O      0.934700000000     0.314300000000     0.928490000000     0          
C1       C      0.889600000000     0.349900000000     0.922830000000     0          
O4       O      0.870900000000     0.356500000000     0.905320000000     0          
C2       C      0.850400000000     0.378200000000     0.938780000000     0          
C3       C      0.794700000000     0.412900000000     0.934340000000     0          
C4       C      0.867500000000     0.369000000000     0.958490000000     0          
H1       H      0.781700000000     0.417700000000     0.920800000000     0          
C5       C      0.758400000000     0.440300000000     0.949110000000     0          
C6       C      0.830500000000     0.402200000000     0.973070000000     0          
H2       H      0.902400000000     0.341600000000     0.962100000000     0          
H3       H      0.719600000000     0.462100000000     0.945700000000     0          
C7       C      0.776600000000     0.436800000000     0.968600000000     0          
H4       H      0.844000000000     0.400100000000     0.986600000000     0          
C8       C      0.738700000000     0.470600000000     0.984550000000     0          
C10      C      0.673700000000     0.472400000000     0.983880000000     0          
H6       H      0.651100000000     0.455300000000     0.972700000000     0          
C13      C      0.539600000000     0.509300000000     0.980240000000     0          
H7       H      0.564800000000     0.514800000000     0.968500000000     0          
O2       O      0.927200000000     0.250000000000     0.890680000000     0          
Zr2      Zr     0.915500000000     0.334500000000     0.875000000000     0          
O1       O      0.435700000000     0.184700000000     0.678490000000     0          
C1       C      0.400100000000     0.139600000000     0.672830000000     0          
O4       O      0.393500000000     0.120900000000     0.655320000000     0          
C2       C      0.371800000000     0.100400000000     0.688780000000     0          
C3       C      0.337100000000     0.044700000000     0.684340000000     0          
C4       C      0.381000000000     0.117500000000     0.708490000000     0          
H1       H      0.332300000000     0.031700000000     0.670800000000     0          
C5       C      0.309700000000     0.008400000000     0.699110000000     0          
C6       C      0.347800000000     0.080500000000     0.723070000000     0          
H2       H      0.408400000000     0.152400000000     0.712100000000     0          
H3       H      0.287900000000     0.969600000000     0.695700000000     0          
C7       C      0.313200000000     0.026600000000     0.718600000000     0          
H4       H      0.349900000000     0.094000000000     0.736600000000     0          
C8       C      0.279400000000     0.988700000000     0.734550000000     0          
C10      C      0.277600000000     0.923700000000     0.733880000000     0          
H6       H      0.294700000000     0.901100000000     0.722700000000     0          
C13      C      0.240700000000     0.789600000000     0.730240000000     0          
H7       H      0.235200000000     0.814800000000     0.718500000000     0          
O3       O      0.403700000000     0.250000000000     0.644850000000     0          
Zr2      Zr     0.415500000000     0.165500000000     0.625000000000     0          
O1       O      0.934700000000     0.185700000000     0.928490000000     0          
C1       C      0.889600000000     0.150100000000     0.922830000000     0          
O4       O      0.870900000000     0.143500000000     0.905320000000     0          
C2       C      0.850400000000     0.121800000000     0.938780000000     0          
C3       C      0.794700000000     0.087100000000     0.934340000000     0          
C4       C      0.867500000000     0.131000000000     0.958490000000     0          
H1       H      0.781700000000     0.082300000000     0.920800000000     0          
C5       C      0.758400000000     0.059700000000     0.949110000000     0          
C6       C      0.830500000000     0.097800000000     0.973070000000     0          
H2       H      0.902400000000     0.158400000000     0.962100000000     0          
H3       H      0.719600000000     0.037900000000     0.945700000000     0          
C7       C      0.776600000000     0.063200000000     0.968600000000     0          
H4       H      0.844000000000     0.099900000000     0.986600000000     0          
C8       C      0.738700000000     0.029400000000     0.984550000000     0          
C10      C      0.673700000000     0.027600000000     0.983880000000     0          
H6       H      0.651100000000     0.044700000000     0.972700000000     0          
C13      C      0.539600000000     0.990700000000     0.980240000000     0          
H7       H      0.564800000000     0.985200000000     0.968500000000     0          
O3       O      0.000000000000     0.153700000000     0.894850000000     0          
C9       C      0.770400000000     0.000000000000     0.000000000000     0          
H5       H      0.816300000000     0.000000000000     0.000000000000     0          
C11      C      0.639900000000     0.000000000000     0.000000000000     0          
C12      C      0.567600000000     0.000000000000     0.000000000000     0          
O1       O      0.064300000000     0.684700000000     0.178490000000     0          
C1       C      0.099900000000     0.639600000000     0.172830000000     0          
O4       O      0.106500000000     0.620900000000     0.155320000000     0          
C2       C      0.128200000000     0.600400000000     0.188780000000     0          
C3       C      0.162900000000     0.544700000000     0.184340000000     0          
C4       C      0.119000000000     0.617500000000     0.208490000000     0          
H1       H      0.167700000000     0.531700000000     0.170800000000     0          
C5       C      0.190300000000     0.508400000000     0.199110000000     0          
C6       C      0.152200000000     0.580500000000     0.223070000000     0          
H2       H      0.091600000000     0.652400000000     0.212100000000     0          
H3       H      0.212100000000     0.469600000000     0.195700000000     0          
C7       C      0.186800000000     0.526600000000     0.218600000000     0          
H4       H      0.150100000000     0.594000000000     0.236600000000     0          
C8       C      0.220600000000     0.488700000000     0.234550000000     0          
C10      C      0.222400000000     0.423700000000     0.233880000000     0          
H6       H      0.205300000000     0.401100000000     0.222700000000     0          
C13      C      0.259300000000     0.289600000000     0.230240000000     0          
H7       H      0.264800000000     0.314800000000     0.218500000000     0          
O2       O      0.000000000000     0.677200000000     0.140680000000     0          
C9       C      0.250000000000     0.520400000000     0.250000000000     0          
H5       H      0.250000000000     0.566300000000     0.250000000000     0          
C11      C      0.250000000000     0.389900000000     0.250000000000     0          
C12      C      0.250000000000     0.317600000000     0.250000000000     0          
O1       O      0.565300000000     0.814300000000     0.428490000000     0          
C1       C      0.610400000000     0.849900000000     0.422830000000     0          
O4       O      0.629100000000     0.856500000000     0.405320000000     0          
C2       C      0.649600000000     0.878200000000     0.438780000000     0          
C3       C      0.705300000000     0.912900000000     0.434340000000     0          
C4       C      0.632500000000     0.869000000000     0.458490000000     0          
H1       H      0.718300000000     0.917700000000     0.420800000000     0          
C5       C      0.741600000000     0.940300000000     0.449110000000     0          
C6       C      0.669500000000     0.902200000000     0.473070000000     0          
H2       H      0.597600000000     0.841600000000     0.462100000000     0          
H3       H      0.780400000000     0.962100000000     0.445700000000     0          
C7       C      0.723400000000     0.936800000000     0.468600000000     0          
H4       H      0.656000000000     0.900100000000     0.486600000000     0          
C8       C      0.761300000000     0.970600000000     0.484550000000     0          
C10      C      0.826300000000     0.972400000000     0.483880000000     0          
H6       H      0.848900000000     0.955300000000     0.472700000000     0          
C13      C      0.960400000000     0.009300000000     0.480240000000     0          
H7       H      0.935200000000     0.014800000000     0.468500000000     0          
O3       O      0.500000000000     0.846300000000     0.394850000000     0          
C9       C      0.729600000000     0.000000000000     0.500000000000     0          
H5       H      0.683700000000     0.000000000000     0.500000000000     0          
C11      C      0.860100000000     0.000000000000     0.500000000000     0          
C12      C      0.932400000000     0.000000000000     0.500000000000     0          
O1       O      0.435700000000     0.315300000000     0.678490000000     0          
C1       C      0.400100000000     0.360400000000     0.672830000000     0          
O4       O      0.393500000000     0.379100000000     0.655320000000     0          
C2       C      0.371800000000     0.399600000000     0.688780000000     0          
C3       C      0.337100000000     0.455300000000     0.684340000000     0          
C4       C      0.381000000000     0.382500000000     0.708490000000     0          
H1       H      0.332300000000     0.468300000000     0.670800000000     0          
C5       C      0.309700000000     0.491600000000     0.699110000000     0          
C6       C      0.347800000000     0.419500000000     0.723070000000     0          
H2       H      0.408400000000     0.347600000000     0.712100000000     0          
H3       H      0.287900000000     0.530400000000     0.695700000000     0          
C7       C      0.313200000000     0.473400000000     0.718600000000     0          
H4       H      0.349900000000     0.406000000000     0.736600000000     0          
C8       C      0.279400000000     0.511300000000     0.734550000000     0          
C10      C      0.277600000000     0.576300000000     0.733880000000     0          
H6       H      0.294700000000     0.598900000000     0.722700000000     0          
C13      C      0.240700000000     0.710400000000     0.730240000000     0          
H7       H      0.235200000000     0.685200000000     0.718500000000     0          
O2       O      0.500000000000     0.322800000000     0.640680000000     0          
C9       C      0.250000000000     0.479600000000     0.750000000000     0          
H5       H      0.250000000000     0.433700000000     0.750000000000     0          
C11      C      0.250000000000     0.610100000000     0.750000000000     0          
C12      C      0.250000000000     0.682400000000     0.750000000000     0          
O1       O      0.934700000000     0.814300000000     0.071510000000     0          
C1       C      0.889600000000     0.849900000000     0.077170000000     0          
O4       O      0.870900000000     0.856500000000     0.094680000000     0          
C2       C      0.850400000000     0.878200000000     0.061220000000     0          
C3       C      0.794700000000     0.912900000000     0.065660000000     0          
C4       C      0.867500000000     0.869000000000     0.041510000000     0          
H1       H      0.781700000000     0.917700000000     0.079200000000     0          
C5       C      0.758400000000     0.940300000000     0.050890000000     0          
C6       C      0.830500000000     0.902200000000     0.026930000000     0          
H2       H      0.902400000000     0.841600000000     0.037900000000     0          
H3       H      0.719600000000     0.962100000000     0.054300000000     0          
C7       C      0.776600000000     0.936800000000     0.031400000000     0          
H4       H      0.844000000000     0.900100000000     0.013400000000     0          
C8       C      0.738700000000     0.970600000000     0.015450000000     0          
C10      C      0.673700000000     0.972400000000     0.016120000000     0          
H6       H      0.651100000000     0.955300000000     0.027300000000     0          
C13      C      0.539600000000     0.009300000000     0.019760000000     0          
H7       H      0.564800000000     0.014800000000     0.031500000000     0          
O3       O      0.000000000000     0.846300000000     0.105150000000     0          
O1       O      0.435700000000     0.684700000000     0.321510000000     0          
C1       C      0.400100000000     0.639600000000     0.327170000000     0          
O4       O      0.393500000000     0.620900000000     0.344680000000     0          
C2       C      0.371800000000     0.600400000000     0.311220000000     0          
C3       C      0.337100000000     0.544700000000     0.315660000000     0          
C4       C      0.381000000000     0.617500000000     0.291510000000     0          
H1       H      0.332300000000     0.531700000000     0.329200000000     0          
C5       C      0.309700000000     0.508400000000     0.300890000000     0          
C6       C      0.347800000000     0.580500000000     0.276930000000     0          
H2       H      0.408400000000     0.652400000000     0.287900000000     0          
H3       H      0.287900000000     0.469600000000     0.304300000000     0          
C7       C      0.313200000000     0.526600000000     0.281400000000     0          
H4       H      0.349900000000     0.594000000000     0.263400000000     0          
C8       C      0.279400000000     0.488700000000     0.265450000000     0          
C10      C      0.277600000000     0.423700000000     0.266120000000     0          
H6       H      0.294700000000     0.401100000000     0.277300000000     0          
C13      C      0.240700000000     0.289600000000     0.269760000000     0          
H7       H      0.235200000000     0.314800000000     0.281500000000     0          
O2       O      0.500000000000     0.677200000000     0.359320000000     0          
O1       O      0.565300000000     0.185700000000     0.571510000000     0          
C1       C      0.610400000000     0.150100000000     0.577170000000     0          
O4       O      0.629100000000     0.143500000000     0.594680000000     0          
C2       C      0.649600000000     0.121800000000     0.561220000000     0          
C3       C      0.705300000000     0.087100000000     0.565660000000     0          
C4       C      0.632500000000     0.131000000000     0.541510000000     0          
H1       H      0.718300000000     0.082300000000     0.579200000000     0          
C5       C      0.741600000000     0.059700000000     0.550890000000     0          
C6       C      0.669500000000     0.097800000000     0.526930000000     0          
H2       H      0.597600000000     0.158400000000     0.537900000000     0          
H3       H      0.780400000000     0.037900000000     0.554300000000     0          
C7       C      0.723400000000     0.063200000000     0.531400000000     0          
H4       H      0.656000000000     0.099900000000     0.513400000000     0          
C8       C      0.761300000000     0.029400000000     0.515450000000     0          
C10      C      0.826300000000     0.027600000000     0.516120000000     0          
H6       H      0.848900000000     0.044700000000     0.527300000000     0          
C13      C      0.960400000000     0.990700000000     0.519760000000     0          
H7       H      0.935200000000     0.985200000000     0.531500000000     0          
O3       O      0.500000000000     0.153700000000     0.605150000000     0          
O1       O      0.064300000000     0.315300000000     0.821510000000     0          
C1       C      0.099900000000     0.360400000000     0.827170000000     0          
O4       O      0.106500000000     0.379100000000     0.844680000000     0          
C2       C      0.128200000000     0.399600000000     0.811220000000     0          
C3       C      0.162900000000     0.455300000000     0.815660000000     0          
C4       C      0.119000000000     0.382500000000     0.791510000000     0          
H1       H      0.167700000000     0.468300000000     0.829200000000     0          
C5       C      0.190300000000     0.491600000000     0.800890000000     0          
C6       C      0.152200000000     0.419500000000     0.776930000000     0          
H2       H      0.091600000000     0.347600000000     0.787900000000     0          
H3       H      0.212100000000     0.530400000000     0.804300000000     0          
C7       C      0.186800000000     0.473400000000     0.781400000000     0          
H4       H      0.150100000000     0.406000000000     0.763400000000     0          
C8       C      0.220600000000     0.511300000000     0.765450000000     0          
C10      C      0.222400000000     0.576300000000     0.766120000000     0          
H6       H      0.205300000000     0.598900000000     0.777300000000     0          
C13      C      0.259300000000     0.710400000000     0.769760000000     0          
H7       H      0.264800000000     0.685200000000     0.781500000000     0          
O2       O      0.000000000000     0.322800000000     0.859320000000     0          
O1       O      0.065300000000     0.814300000000     0.071510000000     0          
C1       C      0.110400000000     0.849900000000     0.077170000000     0          
O4       O      0.129100000000     0.856500000000     0.094680000000     0          
C2       C      0.149600000000     0.878200000000     0.061220000000     0          
C3       C      0.205300000000     0.912900000000     0.065660000000     0          
C4       C      0.132500000000     0.869000000000     0.041510000000     0          
H1       H      0.218300000000     0.917700000000     0.079200000000     0          
C5       C      0.241600000000     0.940300000000     0.050890000000     0          
C6       C      0.169500000000     0.902200000000     0.026930000000     0          
H2       H      0.097600000000     0.841600000000     0.037900000000     0          
H3       H      0.280400000000     0.962100000000     0.054300000000     0          
C7       C      0.223400000000     0.936800000000     0.031400000000     0          
H4       H      0.156000000000     0.900100000000     0.013400000000     0          
C8       C      0.261300000000     0.970600000000     0.015450000000     0          
C10      C      0.326300000000     0.972400000000     0.016120000000     0          
H6       H      0.348900000000     0.955300000000     0.027300000000     0          
C13      C      0.460400000000     0.009300000000     0.019760000000     0          
H7       H      0.435200000000     0.014800000000     0.031500000000     0          
C9       C      0.229600000000     0.000000000000     0.000000000000     0          
H5       H      0.183700000000     0.000000000000     0.000000000000     0          
C11      C      0.360100000000     0.000000000000     0.000000000000     0          
C12      C      0.432400000000     0.000000000000     0.000000000000     0          
O1       O      0.935700000000     0.315300000000     0.821510000000     0          
C1       C      0.900100000000     0.360400000000     0.827170000000     0          
O4       O      0.893500000000     0.379100000000     0.844680000000     0          
C2       C      0.871800000000     0.399600000000     0.811220000000     0          
C3       C      0.837100000000     0.455300000000     0.815660000000     0          
C4       C      0.881000000000     0.382500000000     0.791510000000     0          
H1       H      0.832300000000     0.468300000000     0.829200000000     0          
C5       C      0.809700000000     0.491600000000     0.800890000000     0          
C6       C      0.847800000000     0.419500000000     0.776930000000     0          
H2       H      0.908400000000     0.347600000000     0.787900000000     0          
H3       H      0.787900000000     0.530400000000     0.804300000000     0          
C7       C      0.813200000000     0.473400000000     0.781400000000     0          
H4       H      0.849900000000     0.406000000000     0.763400000000     0          
C8       C      0.779400000000     0.511300000000     0.765450000000     0          
C10      C      0.777600000000     0.576300000000     0.766120000000     0          
H6       H      0.794700000000     0.598900000000     0.777300000000     0          
C13      C      0.740700000000     0.710400000000     0.769760000000     0          
H7       H      0.735200000000     0.685200000000     0.781500000000     0          
C9       C      0.750000000000     0.479600000000     0.750000000000     0          
H5       H      0.750000000000     0.433700000000     0.750000000000     0          
C11      C      0.750000000000     0.610100000000     0.750000000000     0          
C12      C      0.750000000000     0.682400000000     0.750000000000     0          
O1       O      0.434700000000     0.185700000000     0.571510000000     0          
C1       C      0.389600000000     0.150100000000     0.577170000000     0          
O4       O      0.370900000000     0.143500000000     0.594680000000     0          
C2       C      0.350400000000     0.121800000000     0.561220000000     0          
C3       C      0.294700000000     0.087100000000     0.565660000000     0          
C4       C      0.367500000000     0.131000000000     0.541510000000     0          
H1       H      0.281700000000     0.082300000000     0.579200000000     0          
C5       C      0.258400000000     0.059700000000     0.550890000000     0          
C6       C      0.330500000000     0.097800000000     0.526930000000     0          
H2       H      0.402400000000     0.158400000000     0.537900000000     0          
H3       H      0.219600000000     0.037900000000     0.554300000000     0          
C7       C      0.276600000000     0.063200000000     0.531400000000     0          
H4       H      0.344000000000     0.099900000000     0.513400000000     0          
C8       C      0.238700000000     0.029400000000     0.515450000000     0          
C10      C      0.173700000000     0.027600000000     0.516120000000     0          
H6       H      0.151100000000     0.044700000000     0.527300000000     0          
C13      C      0.039600000000     0.990700000000     0.519760000000     0          
H7       H      0.064800000000     0.985200000000     0.531500000000     0          
C9       C      0.270400000000     0.000000000000     0.500000000000     0          
H5       H      0.316300000000     0.000000000000     0.500000000000     0          
C11      C      0.139900000000     0.000000000000     0.500000000000     0          
C12      C      0.067600000000     0.000000000000     0.500000000000     0          
O1       O      0.564300000000     0.684700000000     0.321510000000     0          
C1       C      0.599900000000     0.639600000000     0.327170000000     0          
O4       O      0.606500000000     0.620900000000     0.344680000000     0          
C2       C      0.628200000000     0.600400000000     0.311220000000     0          
C3       C      0.662900000000     0.544700000000     0.315660000000     0          
C4       C      0.619000000000     0.617500000000     0.291510000000     0          
H1       H      0.667700000000     0.531700000000     0.329200000000     0          
C5       C      0.690300000000     0.508400000000     0.300890000000     0          
C6       C      0.652200000000     0.580500000000     0.276930000000     0          
H2       H      0.591600000000     0.652400000000     0.287900000000     0          
H3       H      0.712100000000     0.469600000000     0.304300000000     0          
C7       C      0.686800000000     0.526600000000     0.281400000000     0          
H4       H      0.650100000000     0.594000000000     0.263400000000     0          
C8       C      0.720600000000     0.488700000000     0.265450000000     0          
C10      C      0.722400000000     0.423700000000     0.266120000000     0          
H6       H      0.705300000000     0.401100000000     0.277300000000     0          
C13      C      0.759300000000     0.289600000000     0.269760000000     0          
H7       H      0.764800000000     0.314800000000     0.281500000000     0          
C9       C      0.750000000000     0.520400000000     0.250000000000     0          
H5       H      0.750000000000     0.566300000000     0.250000000000     0          
C11      C      0.750000000000     0.389900000000     0.250000000000     0          
C12      C      0.750000000000     0.317600000000     0.250000000000     0          
O1       O      0.065300000000     0.185700000000     0.928490000000     0          
C1       C      0.110400000000     0.150100000000     0.922830000000     0          
O4       O      0.129100000000     0.143500000000     0.905320000000     0          
C2       C      0.149600000000     0.121800000000     0.938780000000     0          
C3       C      0.205300000000     0.087100000000     0.934340000000     0          
C4       C      0.132500000000     0.131000000000     0.958490000000     0          
H1       H      0.218300000000     0.082300000000     0.920800000000     0          
C5       C      0.241600000000     0.059700000000     0.949110000000     0          
C6       C      0.169500000000     0.097800000000     0.973070000000     0          
H2       H      0.097600000000     0.158400000000     0.962100000000     0          
H3       H      0.280400000000     0.037900000000     0.945700000000     0          
C7       C      0.223400000000     0.063200000000     0.968600000000     0          
H4       H      0.156000000000     0.099900000000     0.986600000000     0          
C8       C      0.261300000000     0.029400000000     0.984550000000     0          
C10      C      0.326300000000     0.027600000000     0.983880000000     0          
H6       H      0.348900000000     0.044700000000     0.972700000000     0          
C13      C      0.460400000000     0.990700000000     0.980240000000     0          
H7       H      0.435200000000     0.985200000000     0.968500000000     0          
O1       O      0.564300000000     0.315300000000     0.678490000000     0          
C1       C      0.599900000000     0.360400000000     0.672830000000     0          
O4       O      0.606500000000     0.379100000000     0.655320000000     0          
C2       C      0.628200000000     0.399600000000     0.688780000000     0          
C3       C      0.662900000000     0.455300000000     0.684340000000     0          
C4       C      0.619000000000     0.382500000000     0.708490000000     0          
H1       H      0.667700000000     0.468300000000     0.670800000000     0          
C5       C      0.690300000000     0.491600000000     0.699110000000     0          
C6       C      0.652200000000     0.419500000000     0.723070000000     0          
H2       H      0.591600000000     0.347600000000     0.712100000000     0          
H3       H      0.712100000000     0.530400000000     0.695700000000     0          
C7       C      0.686800000000     0.473400000000     0.718600000000     0          
H4       H      0.650100000000     0.406000000000     0.736600000000     0          
C8       C      0.720600000000     0.511300000000     0.734550000000     0          
C10      C      0.722400000000     0.576300000000     0.733880000000     0          
H6       H      0.705300000000     0.598900000000     0.722700000000     0          
C13      C      0.759300000000     0.710400000000     0.730240000000     0          
H7       H      0.764800000000     0.685200000000     0.718500000000     0          
O1       O      0.434700000000     0.814300000000     0.428490000000     0          
C1       C      0.389600000000     0.849900000000     0.422830000000     0          
O4       O      0.370900000000     0.856500000000     0.405320000000     0          
C2       C      0.350400000000     0.878200000000     0.438780000000     0          
C3       C      0.294700000000     0.912900000000     0.434340000000     0          
C4       C      0.367500000000     0.869000000000     0.458490000000     0          
H1       H      0.281700000000     0.917700000000     0.420800000000     0          
C5       C      0.258400000000     0.940300000000     0.449110000000     0          
C6       C      0.330500000000     0.902200000000     0.473070000000     0          
H2       H      0.402400000000     0.841600000000     0.462100000000     0          
H3       H      0.219600000000     0.962100000000     0.445700000000     0          
C7       C      0.276600000000     0.936800000000     0.468600000000     0          
H4       H      0.344000000000     0.900100000000     0.486600000000     0          
C8       C      0.238700000000     0.970600000000     0.484550000000     0          
C10      C      0.173700000000     0.972400000000     0.483880000000     0          
H6       H      0.151100000000     0.955300000000     0.472700000000     0          
C13      C      0.039600000000     0.009300000000     0.480240000000     0          
H7       H      0.064800000000     0.014800000000     0.468500000000     0          
O1       O      0.935700000000     0.684700000000     0.178490000000     0          
C1       C      0.900100000000     0.639600000000     0.172830000000     0          
O4       O      0.893500000000     0.620900000000     0.155320000000     0          
C2       C      0.871800000000     0.600400000000     0.188780000000     0          
C3       C      0.837100000000     0.544700000000     0.184340000000     0          
C4       C      0.881000000000     0.617500000000     0.208490000000     0          
H1       H      0.832300000000     0.531700000000     0.170800000000     0          
C5       C      0.809700000000     0.508400000000     0.199110000000     0          
C6       C      0.847800000000     0.580500000000     0.223070000000     0          
H2       H      0.908400000000     0.652400000000     0.212100000000     0          
H3       H      0.787900000000     0.469600000000     0.195700000000     0          
C7       C      0.813200000000     0.526600000000     0.218600000000     0          
H4       H      0.849900000000     0.594000000000     0.236600000000     0          
C8       C      0.779400000000     0.488700000000     0.234550000000     0          
C10      C      0.777600000000     0.423700000000     0.233880000000     0          
H6       H      0.794700000000     0.401100000000     0.222700000000     0          
C13      C      0.740700000000     0.289600000000     0.230240000000     0          
H7       H      0.735200000000     0.314800000000     0.218500000000     0          


