data_GAYXIQ

_audit_creation_method RASPA-1.0
_audit_creation_date 2020-11-2
_audit_author_name 'Rocio Bueno-Perez'

_cell_length_a    20.6568
_cell_length_b    20.6568
_cell_length_c    66.6868
_cell_angle_alpha 90
_cell_angle_beta  90
_cell_angle_gamma 90
_cell_volume      28455.5

_symmetry_cell_setting          tetragonal
_symmetry_space_group_name_Hall 'P 1'
_symmetry_space_group_name_H-M  'P 1'
_symmetry_Int_Tables_number     1

_symmetry_equiv_pos_as_xyz 'x,y,z'

loop_
_atom_site_label
_atom_site_type_symbol
_atom_site_fract_x
_atom_site_fract_y
_atom_site_fract_z
_atom_site_charge
O1       O      0.435300000000     0.313740000000     0.071340000000     0          
O2       O      0.374280000000     0.361880000000     0.094880000000     0          
C1       C      0.390770000000     0.350100000000     0.076820000000     0          
C2       C      0.352130000000     0.383700000000     0.061070000000     0          
C3       C      0.372940000000     0.382500000000     0.041610000000     0          
H1       H      0.411300000000     0.359600000000     0.038200000000     0          
C4       C      0.338380000000     0.414600000000     0.026860000000     0          
H2       H      0.355300000000     0.417000000000     0.013600000000     0          
C5       C      0.279690000000     0.443100000000     0.031190000000     0          
C6       C      0.258400000000     0.441800000000     0.050840000000     0          
H3       H      0.218300000000     0.461400000000     0.054200000000     0          
C7       C      0.294900000000     0.412500000000     0.065540000000     0          
H4       H      0.279800000000     0.412400000000     0.079000000000     0          
C8       C      0.240690000000     0.474800000000     0.015100000000     0          
C9       C      0.174580000000     0.474100000000     0.016000000000     0          
H5       H      0.152800000000     0.456400000000     0.027300000000     0          
C12      C      0.035300000000     0.485300000000     0.014600000000     0          
H6       H      0.057200000000     0.473300000000     0.026600000000     0          
Zr1      Zr     0.500000000000     0.250000000000     0.088340000000     0          
Zr2      Zr     0.414790000000     0.335210000000     0.125000000000     0          
O3       O      0.426520000000     0.250000000000     0.109260000000     0          
O4       O      0.500000000000     0.348310000000     0.104710000000     0          
N1       N      0.274060000000     0.500000000000     0.000000000000     0          
C10      C      0.139800000000     0.500000000000     0.000000000000     0          
C11      C      0.067400000000     0.500000000000     0.000000000000     0          
O1       O      0.936260000000     0.185300000000     0.321340000000     0          
O2       O      0.888120000000     0.124280000000     0.344880000000     0          
C1       C      0.899900000000     0.140770000000     0.326820000000     0          
C2       C      0.866300000000     0.102130000000     0.311070000000     0          
C3       C      0.867500000000     0.122940000000     0.291610000000     0          
H1       H      0.890400000000     0.161300000000     0.288200000000     0          
C4       C      0.835400000000     0.088380000000     0.276860000000     0          
H2       H      0.833000000000     0.105300000000     0.263600000000     0          
C5       C      0.806900000000     0.029690000000     0.281190000000     0          
C6       C      0.808200000000     0.008400000000     0.300840000000     0          
H3       H      0.788600000000     0.968300000000     0.304200000000     0          
C7       C      0.837500000000     0.044900000000     0.315540000000     0          
H4       H      0.837600000000     0.029800000000     0.329000000000     0          
C8       C      0.775200000000     0.990690000000     0.265100000000     0          
C9       C      0.775900000000     0.924580000000     0.266000000000     0          
H5       H      0.793600000000     0.902800000000     0.277300000000     0          
C12      C      0.764700000000     0.785300000000     0.264600000000     0          
H6       H      0.776700000000     0.807200000000     0.276600000000     0          
Zr1      Zr     0.000000000000     0.250000000000     0.338340000000     0          
Zr2      Zr     0.914790000000     0.164790000000     0.375000000000     0          
O3       O      0.000000000000     0.176520000000     0.359260000000     0          
O4       O      0.901690000000     0.250000000000     0.354710000000     0          
N1       N      0.750000000000     0.024060000000     0.250000000000     0          
C10      C      0.750000000000     0.889800000000     0.250000000000     0          
C11      C      0.750000000000     0.817400000000     0.250000000000     0          
O1       O      0.064700000000     0.686260000000     0.571340000000     0          
O2       O      0.125720000000     0.638120000000     0.594880000000     0          
C1       C      0.109230000000     0.649900000000     0.576820000000     0          
C2       C      0.147870000000     0.616300000000     0.561070000000     0          
C3       C      0.127060000000     0.617500000000     0.541610000000     0          
H1       H      0.088700000000     0.640400000000     0.538200000000     0          
C4       C      0.161620000000     0.585400000000     0.526860000000     0          
H2       H      0.144700000000     0.583000000000     0.513600000000     0          
C5       C      0.220310000000     0.556900000000     0.531190000000     0          
C6       C      0.241600000000     0.558200000000     0.550840000000     0          
H3       H      0.281700000000     0.538600000000     0.554200000000     0          
C7       C      0.205100000000     0.587500000000     0.565540000000     0          
H4       H      0.220200000000     0.587600000000     0.579000000000     0          
C8       C      0.259310000000     0.525200000000     0.515100000000     0          
C9       C      0.325420000000     0.525900000000     0.516000000000     0          
H5       H      0.347200000000     0.543600000000     0.527300000000     0          
C12      C      0.464700000000     0.514700000000     0.514600000000     0          
H6       H      0.442800000000     0.526700000000     0.526600000000     0          
Zr1      Zr     0.000000000000     0.750000000000     0.588340000000     0          
Zr2      Zr     0.085210000000     0.664790000000     0.625000000000     0          
O3       O      0.073480000000     0.750000000000     0.609260000000     0          
O4       O      0.000000000000     0.651690000000     0.604710000000     0          
N1       N      0.225940000000     0.500000000000     0.500000000000     0          
C10      C      0.360200000000     0.500000000000     0.500000000000     0          
C11      C      0.432600000000     0.500000000000     0.500000000000     0          
O1       O      0.563740000000     0.814700000000     0.821340000000     0          
O2       O      0.611880000000     0.875720000000     0.844880000000     0          
C1       C      0.600100000000     0.859230000000     0.826820000000     0          
C2       C      0.633700000000     0.897870000000     0.811070000000     0          
C3       C      0.632500000000     0.877060000000     0.791610000000     0          
H1       H      0.609600000000     0.838700000000     0.788200000000     0          
C4       C      0.664600000000     0.911620000000     0.776860000000     0          
H2       H      0.667000000000     0.894700000000     0.763600000000     0          
C5       C      0.693100000000     0.970310000000     0.781190000000     0          
C6       C      0.691800000000     0.991600000000     0.800840000000     0          
H3       H      0.711400000000     0.031700000000     0.804200000000     0          
C7       C      0.662500000000     0.955100000000     0.815540000000     0          
H4       H      0.662400000000     0.970200000000     0.829000000000     0          
C8       C      0.724800000000     0.009310000000     0.765100000000     0          
C9       C      0.724100000000     0.075420000000     0.766000000000     0          
H5       H      0.706400000000     0.097200000000     0.777300000000     0          
C12      C      0.735300000000     0.214700000000     0.764600000000     0          
H6       H      0.723300000000     0.192800000000     0.776600000000     0          
Zr1      Zr     0.500000000000     0.750000000000     0.838340000000     0          
Zr2      Zr     0.585210000000     0.835210000000     0.875000000000     0          
O3       O      0.500000000000     0.823480000000     0.859260000000     0          
O4       O      0.598310000000     0.750000000000     0.854710000000     0          
N1       N      0.750000000000     0.975940000000     0.750000000000     0          
C10      C      0.750000000000     0.110200000000     0.750000000000     0          
C11      C      0.750000000000     0.182600000000     0.750000000000     0          
O1       O      0.435300000000     0.686260000000     0.928660000000     0          
O2       O      0.374280000000     0.638120000000     0.905120000000     0          
C1       C      0.390770000000     0.649900000000     0.923180000000     0          
C2       C      0.352130000000     0.616300000000     0.938930000000     0          
C3       C      0.372940000000     0.617500000000     0.958390000000     0          
H1       H      0.411300000000     0.640400000000     0.961800000000     0          
C4       C      0.338380000000     0.585400000000     0.973140000000     0          
H2       H      0.355300000000     0.583000000000     0.986400000000     0          
C5       C      0.279690000000     0.556900000000     0.968810000000     0          
C6       C      0.258400000000     0.558200000000     0.949160000000     0          
H3       H      0.218300000000     0.538600000000     0.945800000000     0          
C7       C      0.294900000000     0.587500000000     0.934460000000     0          
H4       H      0.279800000000     0.587600000000     0.921000000000     0          
C8       C      0.240690000000     0.525200000000     0.984900000000     0          
C9       C      0.174580000000     0.525900000000     0.984000000000     0          
H5       H      0.152800000000     0.543600000000     0.972700000000     0          
C12      C      0.035300000000     0.514700000000     0.985400000000     0          
H6       H      0.057200000000     0.526700000000     0.973400000000     0          
Zr1      Zr     0.500000000000     0.750000000000     0.911660000000     0          
Zr2      Zr     0.414790000000     0.664790000000     0.875000000000     0          
O3       O      0.426520000000     0.750000000000     0.890740000000     0          
O4       O      0.500000000000     0.651690000000     0.895290000000     0          
O1       O      0.563740000000     0.185300000000     0.178660000000     0          
O2       O      0.611880000000     0.124280000000     0.155120000000     0          
C1       C      0.600100000000     0.140770000000     0.173180000000     0          
C2       C      0.633700000000     0.102130000000     0.188930000000     0          
C3       C      0.632500000000     0.122940000000     0.208390000000     0          
H1       H      0.609600000000     0.161300000000     0.211800000000     0          
C4       C      0.664600000000     0.088380000000     0.223140000000     0          
H2       H      0.667000000000     0.105300000000     0.236400000000     0          
C5       C      0.693100000000     0.029690000000     0.218810000000     0          
C6       C      0.691800000000     0.008400000000     0.199160000000     0          
H3       H      0.711400000000     0.968300000000     0.195800000000     0          
C7       C      0.662500000000     0.044900000000     0.184460000000     0          
H4       H      0.662400000000     0.029800000000     0.171000000000     0          
C8       C      0.724800000000     0.990690000000     0.234900000000     0          
C9       C      0.724100000000     0.924580000000     0.234000000000     0          
H5       H      0.706400000000     0.902800000000     0.222700000000     0          
C12      C      0.735300000000     0.785300000000     0.235400000000     0          
H6       H      0.723300000000     0.807200000000     0.223400000000     0          
Zr1      Zr     0.500000000000     0.250000000000     0.161660000000     0          
Zr2      Zr     0.585210000000     0.164790000000     0.125000000000     0          
O3       O      0.500000000000     0.176520000000     0.140740000000     0          
O4       O      0.598310000000     0.250000000000     0.145290000000     0          
O1       O      0.064700000000     0.313740000000     0.428660000000     0          
O2       O      0.125720000000     0.361880000000     0.405120000000     0          
C1       C      0.109230000000     0.350100000000     0.423180000000     0          
C2       C      0.147870000000     0.383700000000     0.438930000000     0          
C3       C      0.127060000000     0.382500000000     0.458390000000     0          
H1       H      0.088700000000     0.359600000000     0.461800000000     0          
C4       C      0.161620000000     0.414600000000     0.473140000000     0          
H2       H      0.144700000000     0.417000000000     0.486400000000     0          
C5       C      0.220310000000     0.443100000000     0.468810000000     0          
C6       C      0.241600000000     0.441800000000     0.449160000000     0          
H3       H      0.281700000000     0.461400000000     0.445800000000     0          
C7       C      0.205100000000     0.412500000000     0.434460000000     0          
H4       H      0.220200000000     0.412400000000     0.421000000000     0          
C8       C      0.259310000000     0.474800000000     0.484900000000     0          
C9       C      0.325420000000     0.474100000000     0.484000000000     0          
H5       H      0.347200000000     0.456400000000     0.472700000000     0          
C12      C      0.464700000000     0.485300000000     0.485400000000     0          
H6       H      0.442800000000     0.473300000000     0.473400000000     0          
Zr1      Zr     0.000000000000     0.250000000000     0.411660000000     0          
Zr2      Zr     0.085210000000     0.335210000000     0.375000000000     0          
O3       O      0.073480000000     0.250000000000     0.390740000000     0          
O4       O      0.000000000000     0.348310000000     0.395290000000     0          
O1       O      0.936260000000     0.814700000000     0.678660000000     0          
O2       O      0.888120000000     0.875720000000     0.655120000000     0          
C1       C      0.899900000000     0.859230000000     0.673180000000     0          
C2       C      0.866300000000     0.897870000000     0.688930000000     0          
C3       C      0.867500000000     0.877060000000     0.708390000000     0          
H1       H      0.890400000000     0.838700000000     0.711800000000     0          
C4       C      0.835400000000     0.911620000000     0.723140000000     0          
H2       H      0.833000000000     0.894700000000     0.736400000000     0          
C5       C      0.806900000000     0.970310000000     0.718810000000     0          
C6       C      0.808200000000     0.991600000000     0.699160000000     0          
H3       H      0.788600000000     0.031700000000     0.695800000000     0          
C7       C      0.837500000000     0.955100000000     0.684460000000     0          
H4       H      0.837600000000     0.970200000000     0.671000000000     0          
C8       C      0.775200000000     0.009310000000     0.734900000000     0          
C9       C      0.775900000000     0.075420000000     0.734000000000     0          
H5       H      0.793600000000     0.097200000000     0.722700000000     0          
C12      C      0.764700000000     0.214700000000     0.735400000000     0          
H6       H      0.776700000000     0.192800000000     0.723400000000     0          
Zr1      Zr     0.000000000000     0.750000000000     0.661660000000     0          
Zr2      Zr     0.914790000000     0.835210000000     0.625000000000     0          
O3       O      0.000000000000     0.823480000000     0.640740000000     0          
O4       O      0.901690000000     0.750000000000     0.645290000000     0          
O1       O      0.564700000000     0.686260000000     0.928660000000     0          
O2       O      0.625720000000     0.638120000000     0.905120000000     0          
C1       C      0.609230000000     0.649900000000     0.923180000000     0          
C2       C      0.647870000000     0.616300000000     0.938930000000     0          
C3       C      0.627060000000     0.617500000000     0.958390000000     0          
H1       H      0.588700000000     0.640400000000     0.961800000000     0          
C4       C      0.661620000000     0.585400000000     0.973140000000     0          
H2       H      0.644700000000     0.583000000000     0.986400000000     0          
C5       C      0.720310000000     0.556900000000     0.968810000000     0          
C6       C      0.741600000000     0.558200000000     0.949160000000     0          
H3       H      0.781700000000     0.538600000000     0.945800000000     0          
C7       C      0.705100000000     0.587500000000     0.934460000000     0          
H4       H      0.720200000000     0.587600000000     0.921000000000     0          
C8       C      0.759310000000     0.525200000000     0.984900000000     0          
C9       C      0.825420000000     0.525900000000     0.984000000000     0          
H5       H      0.847200000000     0.543600000000     0.972700000000     0          
C12      C      0.964700000000     0.514700000000     0.985400000000     0          
H6       H      0.942800000000     0.526700000000     0.973400000000     0          
Zr2      Zr     0.585210000000     0.664790000000     0.875000000000     0          
O3       O      0.573480000000     0.750000000000     0.890740000000     0          
N1       N      0.725940000000     0.500000000000     0.000000000000     0          
C10      C      0.860200000000     0.500000000000     0.000000000000     0          
C11      C      0.932600000000     0.500000000000     0.000000000000     0          
O1       O      0.063740000000     0.814700000000     0.678660000000     0          
O2       O      0.111880000000     0.875720000000     0.655120000000     0          
C1       C      0.100100000000     0.859230000000     0.673180000000     0          
C2       C      0.133700000000     0.897870000000     0.688930000000     0          
C3       C      0.132500000000     0.877060000000     0.708390000000     0          
H1       H      0.109600000000     0.838700000000     0.711800000000     0          
C4       C      0.164600000000     0.911620000000     0.723140000000     0          
H2       H      0.167000000000     0.894700000000     0.736400000000     0          
C5       C      0.193100000000     0.970310000000     0.718810000000     0          
C6       C      0.191800000000     0.991600000000     0.699160000000     0          
H3       H      0.211400000000     0.031700000000     0.695800000000     0          
C7       C      0.162500000000     0.955100000000     0.684460000000     0          
H4       H      0.162400000000     0.970200000000     0.671000000000     0          
C8       C      0.224800000000     0.009310000000     0.734900000000     0          
C9       C      0.224100000000     0.075420000000     0.734000000000     0          
H5       H      0.206400000000     0.097200000000     0.722700000000     0          
C12      C      0.235300000000     0.214700000000     0.735400000000     0          
H6       H      0.223300000000     0.192800000000     0.723400000000     0          
Zr2      Zr     0.085210000000     0.835210000000     0.625000000000     0          
O4       O      0.098310000000     0.750000000000     0.645290000000     0          
N1       N      0.250000000000     0.975940000000     0.750000000000     0          
C10      C      0.250000000000     0.110200000000     0.750000000000     0          
C11      C      0.250000000000     0.182600000000     0.750000000000     0          
O1       O      0.935300000000     0.313740000000     0.428660000000     0          
O2       O      0.874280000000     0.361880000000     0.405120000000     0          
C1       C      0.890770000000     0.350100000000     0.423180000000     0          
C2       C      0.852130000000     0.383700000000     0.438930000000     0          
C3       C      0.872940000000     0.382500000000     0.458390000000     0          
H1       H      0.911300000000     0.359600000000     0.461800000000     0          
C4       C      0.838380000000     0.414600000000     0.473140000000     0          
H2       H      0.855300000000     0.417000000000     0.486400000000     0          
C5       C      0.779690000000     0.443100000000     0.468810000000     0          
C6       C      0.758400000000     0.441800000000     0.449160000000     0          
H3       H      0.718300000000     0.461400000000     0.445800000000     0          
C7       C      0.794900000000     0.412500000000     0.434460000000     0          
H4       H      0.779800000000     0.412400000000     0.421000000000     0          
C8       C      0.740690000000     0.474800000000     0.484900000000     0          
C9       C      0.674580000000     0.474100000000     0.484000000000     0          
H5       H      0.652800000000     0.456400000000     0.472700000000     0          
C12      C      0.535300000000     0.485300000000     0.485400000000     0          
H6       H      0.557200000000     0.473300000000     0.473400000000     0          
Zr2      Zr     0.914790000000     0.335210000000     0.375000000000     0          
O3       O      0.926520000000     0.250000000000     0.390740000000     0          
N1       N      0.774060000000     0.500000000000     0.500000000000     0          
C10      C      0.639800000000     0.500000000000     0.500000000000     0          
C11      C      0.567400000000     0.500000000000     0.500000000000     0          
O1       O      0.436260000000     0.185300000000     0.178660000000     0          
O2       O      0.388120000000     0.124280000000     0.155120000000     0          
C1       C      0.399900000000     0.140770000000     0.173180000000     0          
C2       C      0.366300000000     0.102130000000     0.188930000000     0          
C3       C      0.367500000000     0.122940000000     0.208390000000     0          
H1       H      0.390400000000     0.161300000000     0.211800000000     0          
C4       C      0.335400000000     0.088380000000     0.223140000000     0          
H2       H      0.333000000000     0.105300000000     0.236400000000     0          
C5       C      0.306900000000     0.029690000000     0.218810000000     0          
C6       C      0.308200000000     0.008400000000     0.199160000000     0          
H3       H      0.288600000000     0.968300000000     0.195800000000     0          
C7       C      0.337500000000     0.044900000000     0.184460000000     0          
H4       H      0.337600000000     0.029800000000     0.171000000000     0          
C8       C      0.275200000000     0.990690000000     0.234900000000     0          
C9       C      0.275900000000     0.924580000000     0.234000000000     0          
H5       H      0.293600000000     0.902800000000     0.222700000000     0          
C12      C      0.264700000000     0.785300000000     0.235400000000     0          
H6       H      0.276700000000     0.807200000000     0.223400000000     0          
Zr2      Zr     0.414790000000     0.164790000000     0.125000000000     0          
O4       O      0.401690000000     0.250000000000     0.145290000000     0          
N1       N      0.250000000000     0.024060000000     0.250000000000     0          
C10      C      0.250000000000     0.889800000000     0.250000000000     0          
C11      C      0.250000000000     0.817400000000     0.250000000000     0          
O1       O      0.564700000000     0.313740000000     0.071340000000     0          
O2       O      0.625720000000     0.361880000000     0.094880000000     0          
C1       C      0.609230000000     0.350100000000     0.076820000000     0          
C2       C      0.647870000000     0.383700000000     0.061070000000     0          
C3       C      0.627060000000     0.382500000000     0.041610000000     0          
H1       H      0.588700000000     0.359600000000     0.038200000000     0          
C4       C      0.661620000000     0.414600000000     0.026860000000     0          
H2       H      0.644700000000     0.417000000000     0.013600000000     0          
C5       C      0.720310000000     0.443100000000     0.031190000000     0          
C6       C      0.741600000000     0.441800000000     0.050840000000     0          
H3       H      0.781700000000     0.461400000000     0.054200000000     0          
C7       C      0.705100000000     0.412500000000     0.065540000000     0          
H4       H      0.720200000000     0.412400000000     0.079000000000     0          
C8       C      0.759310000000     0.474800000000     0.015100000000     0          
C9       C      0.825420000000     0.474100000000     0.016000000000     0          
H5       H      0.847200000000     0.456400000000     0.027300000000     0          
C12      C      0.964700000000     0.485300000000     0.014600000000     0          
H6       H      0.942800000000     0.473300000000     0.026600000000     0          
Zr2      Zr     0.585210000000     0.335210000000     0.125000000000     0          
O3       O      0.573480000000     0.250000000000     0.109260000000     0          
O1       O      0.436260000000     0.814700000000     0.821340000000     0          
O2       O      0.388120000000     0.875720000000     0.844880000000     0          
C1       C      0.399900000000     0.859230000000     0.826820000000     0          
C2       C      0.366300000000     0.897870000000     0.811070000000     0          
C3       C      0.367500000000     0.877060000000     0.791610000000     0          
H1       H      0.390400000000     0.838700000000     0.788200000000     0          
C4       C      0.335400000000     0.911620000000     0.776860000000     0          
H2       H      0.333000000000     0.894700000000     0.763600000000     0          
C5       C      0.306900000000     0.970310000000     0.781190000000     0          
C6       C      0.308200000000     0.991600000000     0.800840000000     0          
H3       H      0.288600000000     0.031700000000     0.804200000000     0          
C7       C      0.337500000000     0.955100000000     0.815540000000     0          
H4       H      0.337600000000     0.970200000000     0.829000000000     0          
C8       C      0.275200000000     0.009310000000     0.765100000000     0          
C9       C      0.275900000000     0.075420000000     0.766000000000     0          
H5       H      0.293600000000     0.097200000000     0.777300000000     0          
C12      C      0.264700000000     0.214700000000     0.764600000000     0          
H6       H      0.276700000000     0.192800000000     0.776600000000     0          
Zr2      Zr     0.414790000000     0.835210000000     0.875000000000     0          
O4       O      0.401690000000     0.750000000000     0.854710000000     0          
O1       O      0.935300000000     0.686260000000     0.571340000000     0          
O2       O      0.874280000000     0.638120000000     0.594880000000     0          
C1       C      0.890770000000     0.649900000000     0.576820000000     0          
C2       C      0.852130000000     0.616300000000     0.561070000000     0          
C3       C      0.872940000000     0.617500000000     0.541610000000     0          
H1       H      0.911300000000     0.640400000000     0.538200000000     0          
C4       C      0.838380000000     0.585400000000     0.526860000000     0          
H2       H      0.855300000000     0.583000000000     0.513600000000     0          
C5       C      0.779690000000     0.556900000000     0.531190000000     0          
C6       C      0.758400000000     0.558200000000     0.550840000000     0          
H3       H      0.718300000000     0.538600000000     0.554200000000     0          
C7       C      0.794900000000     0.587500000000     0.565540000000     0          
H4       H      0.779800000000     0.587600000000     0.579000000000     0          
C8       C      0.740690000000     0.525200000000     0.515100000000     0          
C9       C      0.674580000000     0.525900000000     0.516000000000     0          
H5       H      0.652800000000     0.543600000000     0.527300000000     0          
C12      C      0.535300000000     0.514700000000     0.514600000000     0          
H6       H      0.557200000000     0.526700000000     0.526600000000     0          
Zr2      Zr     0.914790000000     0.664790000000     0.625000000000     0          
O3       O      0.926520000000     0.750000000000     0.609260000000     0          
O1       O      0.063740000000     0.185300000000     0.321340000000     0          
O2       O      0.111880000000     0.124280000000     0.344880000000     0          
C1       C      0.100100000000     0.140770000000     0.326820000000     0          
C2       C      0.133700000000     0.102130000000     0.311070000000     0          
C3       C      0.132500000000     0.122940000000     0.291610000000     0          
H1       H      0.109600000000     0.161300000000     0.288200000000     0          
C4       C      0.164600000000     0.088380000000     0.276860000000     0          
H2       H      0.167000000000     0.105300000000     0.263600000000     0          
C5       C      0.193100000000     0.029690000000     0.281190000000     0          
C6       C      0.191800000000     0.008400000000     0.300840000000     0          
H3       H      0.211400000000     0.968300000000     0.304200000000     0          
C7       C      0.162500000000     0.044900000000     0.315540000000     0          
H4       H      0.162400000000     0.029800000000     0.329000000000     0          
C8       C      0.224800000000     0.990690000000     0.265100000000     0          
C9       C      0.224100000000     0.924580000000     0.266000000000     0          
H5       H      0.206400000000     0.902800000000     0.277300000000     0          
C12      C      0.235300000000     0.785300000000     0.264600000000     0          
H6       H      0.223300000000     0.807200000000     0.276600000000     0          
Zr2      Zr     0.085210000000     0.164790000000     0.375000000000     0          
O4       O      0.098310000000     0.250000000000     0.354710000000     0          
O1       O      0.935300000000     0.813740000000     0.571340000000     0          
O2       O      0.874280000000     0.861880000000     0.594880000000     0          
C1       C      0.890770000000     0.850100000000     0.576820000000     0          
C2       C      0.852130000000     0.883700000000     0.561070000000     0          
C3       C      0.872940000000     0.882500000000     0.541610000000     0          
H1       H      0.911300000000     0.859600000000     0.538200000000     0          
C4       C      0.838380000000     0.914600000000     0.526860000000     0          
H2       H      0.855300000000     0.917000000000     0.513600000000     0          
C5       C      0.779690000000     0.943100000000     0.531190000000     0          
C6       C      0.758400000000     0.941800000000     0.550840000000     0          
H3       H      0.718300000000     0.961400000000     0.554200000000     0          
C7       C      0.794900000000     0.912500000000     0.565540000000     0          
H4       H      0.779800000000     0.912400000000     0.579000000000     0          
C8       C      0.740690000000     0.974800000000     0.515100000000     0          
C9       C      0.674580000000     0.974100000000     0.516000000000     0          
H5       H      0.652800000000     0.956400000000     0.527300000000     0          
C12      C      0.535300000000     0.985300000000     0.514600000000     0          
H6       H      0.557200000000     0.973300000000     0.526600000000     0          
O4       O      0.000000000000     0.848310000000     0.604710000000     0          
N1       N      0.774060000000     0.000000000000     0.500000000000     0          
C10      C      0.639800000000     0.000000000000     0.500000000000     0          
C11      C      0.567400000000     0.000000000000     0.500000000000     0          
O1       O      0.436260000000     0.685300000000     0.821340000000     0          
O2       O      0.388120000000     0.624280000000     0.844880000000     0          
C1       C      0.399900000000     0.640770000000     0.826820000000     0          
C2       C      0.366300000000     0.602130000000     0.811070000000     0          
C3       C      0.367500000000     0.622940000000     0.791610000000     0          
H1       H      0.390400000000     0.661300000000     0.788200000000     0          
C4       C      0.335400000000     0.588380000000     0.776860000000     0          
H2       H      0.333000000000     0.605300000000     0.763600000000     0          
C5       C      0.306900000000     0.529690000000     0.781190000000     0          
C6       C      0.308200000000     0.508400000000     0.800840000000     0          
H3       H      0.288600000000     0.468300000000     0.804200000000     0          
C7       C      0.337500000000     0.544900000000     0.815540000000     0          
H4       H      0.337600000000     0.529800000000     0.829000000000     0          
C8       C      0.275200000000     0.490690000000     0.765100000000     0          
C9       C      0.275900000000     0.424580000000     0.766000000000     0          
H5       H      0.293600000000     0.402800000000     0.777300000000     0          
C12      C      0.264700000000     0.285300000000     0.764600000000     0          
H6       H      0.276700000000     0.307200000000     0.776600000000     0          
O3       O      0.500000000000     0.676520000000     0.859260000000     0          
N1       N      0.250000000000     0.524060000000     0.750000000000     0          
C10      C      0.250000000000     0.389800000000     0.750000000000     0          
C11      C      0.250000000000     0.317400000000     0.750000000000     0          
O1       O      0.564700000000     0.186260000000     0.071340000000     0          
O2       O      0.625720000000     0.138120000000     0.094880000000     0          
C1       C      0.609230000000     0.149900000000     0.076820000000     0          
C2       C      0.647870000000     0.116300000000     0.061070000000     0          
C3       C      0.627060000000     0.117500000000     0.041610000000     0          
H1       H      0.588700000000     0.140400000000     0.038200000000     0          
C4       C      0.661620000000     0.085400000000     0.026860000000     0          
H2       H      0.644700000000     0.083000000000     0.013600000000     0          
C5       C      0.720310000000     0.056900000000     0.031190000000     0          
C6       C      0.741600000000     0.058200000000     0.050840000000     0          
H3       H      0.781700000000     0.038600000000     0.054200000000     0          
C7       C      0.705100000000     0.087500000000     0.065540000000     0          
H4       H      0.720200000000     0.087600000000     0.079000000000     0          
C8       C      0.759310000000     0.025200000000     0.015100000000     0          
C9       C      0.825420000000     0.025900000000     0.016000000000     0          
H5       H      0.847200000000     0.043600000000     0.027300000000     0          
C12      C      0.964700000000     0.014700000000     0.014600000000     0          
H6       H      0.942800000000     0.026700000000     0.026600000000     0          
O4       O      0.500000000000     0.151690000000     0.104710000000     0          
N1       N      0.725940000000     0.000000000000     0.000000000000     0          
C10      C      0.860200000000     0.000000000000     0.000000000000     0          
C11      C      0.932600000000     0.000000000000     0.000000000000     0          
O1       O      0.063740000000     0.314700000000     0.321340000000     0          
O2       O      0.111880000000     0.375720000000     0.344880000000     0          
C1       C      0.100100000000     0.359230000000     0.326820000000     0          
C2       C      0.133700000000     0.397870000000     0.311070000000     0          
C3       C      0.132500000000     0.377060000000     0.291610000000     0          
H1       H      0.109600000000     0.338700000000     0.288200000000     0          
C4       C      0.164600000000     0.411620000000     0.276860000000     0          
H2       H      0.167000000000     0.394700000000     0.263600000000     0          
C5       C      0.193100000000     0.470310000000     0.281190000000     0          
C6       C      0.191800000000     0.491600000000     0.300840000000     0          
H3       H      0.211400000000     0.531700000000     0.304200000000     0          
C7       C      0.162500000000     0.455100000000     0.315540000000     0          
H4       H      0.162400000000     0.470200000000     0.329000000000     0          
C8       C      0.224800000000     0.509310000000     0.265100000000     0          
C9       C      0.224100000000     0.575420000000     0.266000000000     0          
H5       H      0.206400000000     0.597200000000     0.277300000000     0          
C12      C      0.235300000000     0.714700000000     0.264600000000     0          
H6       H      0.223300000000     0.692800000000     0.276600000000     0          
O3       O      0.000000000000     0.323480000000     0.359260000000     0          
N1       N      0.250000000000     0.475940000000     0.250000000000     0          
C10      C      0.250000000000     0.610200000000     0.250000000000     0          
C11      C      0.250000000000     0.682600000000     0.250000000000     0          
O1       O      0.935300000000     0.186260000000     0.428660000000     0          
O2       O      0.874280000000     0.138120000000     0.405120000000     0          
C1       C      0.890770000000     0.149900000000     0.423180000000     0          
C2       C      0.852130000000     0.116300000000     0.438930000000     0          
C3       C      0.872940000000     0.117500000000     0.458390000000     0          
H1       H      0.911300000000     0.140400000000     0.461800000000     0          
C4       C      0.838380000000     0.085400000000     0.473140000000     0          
H2       H      0.855300000000     0.083000000000     0.486400000000     0          
C5       C      0.779690000000     0.056900000000     0.468810000000     0          
C6       C      0.758400000000     0.058200000000     0.449160000000     0          
H3       H      0.718300000000     0.038600000000     0.445800000000     0          
C7       C      0.794900000000     0.087500000000     0.434460000000     0          
H4       H      0.779800000000     0.087600000000     0.421000000000     0          
C8       C      0.740690000000     0.025200000000     0.484900000000     0          
C9       C      0.674580000000     0.025900000000     0.484000000000     0          
H5       H      0.652800000000     0.043600000000     0.472700000000     0          
C12      C      0.535300000000     0.014700000000     0.485400000000     0          
H6       H      0.557200000000     0.026700000000     0.473400000000     0          
O4       O      0.000000000000     0.151690000000     0.395290000000     0          
O1       O      0.063740000000     0.685300000000     0.678660000000     0          
O2       O      0.111880000000     0.624280000000     0.655120000000     0          
C1       C      0.100100000000     0.640770000000     0.673180000000     0          
C2       C      0.133700000000     0.602130000000     0.688930000000     0          
C3       C      0.132500000000     0.622940000000     0.708390000000     0          
H1       H      0.109600000000     0.661300000000     0.711800000000     0          
C4       C      0.164600000000     0.588380000000     0.723140000000     0          
H2       H      0.167000000000     0.605300000000     0.736400000000     0          
C5       C      0.193100000000     0.529690000000     0.718810000000     0          
C6       C      0.191800000000     0.508400000000     0.699160000000     0          
H3       H      0.211400000000     0.468300000000     0.695800000000     0          
C7       C      0.162500000000     0.544900000000     0.684460000000     0          
H4       H      0.162400000000     0.529800000000     0.671000000000     0          
C8       C      0.224800000000     0.490690000000     0.734900000000     0          
C9       C      0.224100000000     0.424580000000     0.734000000000     0          
H5       H      0.206400000000     0.402800000000     0.722700000000     0          
C12      C      0.235300000000     0.285300000000     0.735400000000     0          
H6       H      0.223300000000     0.307200000000     0.723400000000     0          
O3       O      0.000000000000     0.676520000000     0.640740000000     0          
O1       O      0.564700000000     0.813740000000     0.928660000000     0          
O2       O      0.625720000000     0.861880000000     0.905120000000     0          
C1       C      0.609230000000     0.850100000000     0.923180000000     0          
C2       C      0.647870000000     0.883700000000     0.938930000000     0          
C3       C      0.627060000000     0.882500000000     0.958390000000     0          
H1       H      0.588700000000     0.859600000000     0.961800000000     0          
C4       C      0.661620000000     0.914600000000     0.973140000000     0          
H2       H      0.644700000000     0.917000000000     0.986400000000     0          
C5       C      0.720310000000     0.943100000000     0.968810000000     0          
C6       C      0.741600000000     0.941800000000     0.949160000000     0          
H3       H      0.781700000000     0.961400000000     0.945800000000     0          
C7       C      0.705100000000     0.912500000000     0.934460000000     0          
H4       H      0.720200000000     0.912400000000     0.921000000000     0          
C8       C      0.759310000000     0.974800000000     0.984900000000     0          
C9       C      0.825420000000     0.974100000000     0.984000000000     0          
H5       H      0.847200000000     0.956400000000     0.972700000000     0          
C12      C      0.964700000000     0.985300000000     0.985400000000     0          
H6       H      0.942800000000     0.973300000000     0.973400000000     0          
O4       O      0.500000000000     0.848310000000     0.895290000000     0          
O1       O      0.436260000000     0.314700000000     0.178660000000     0          
O2       O      0.388120000000     0.375720000000     0.155120000000     0          
C1       C      0.399900000000     0.359230000000     0.173180000000     0          
C2       C      0.366300000000     0.397870000000     0.188930000000     0          
C3       C      0.367500000000     0.377060000000     0.208390000000     0          
H1       H      0.390400000000     0.338700000000     0.211800000000     0          
C4       C      0.335400000000     0.411620000000     0.223140000000     0          
H2       H      0.333000000000     0.394700000000     0.236400000000     0          
C5       C      0.306900000000     0.470310000000     0.218810000000     0          
C6       C      0.308200000000     0.491600000000     0.199160000000     0          
H3       H      0.288600000000     0.531700000000     0.195800000000     0          
C7       C      0.337500000000     0.455100000000     0.184460000000     0          
H4       H      0.337600000000     0.470200000000     0.171000000000     0          
C8       C      0.275200000000     0.509310000000     0.234900000000     0          
C9       C      0.275900000000     0.575420000000     0.234000000000     0          
H5       H      0.293600000000     0.597200000000     0.222700000000     0          
C12      C      0.264700000000     0.714700000000     0.235400000000     0          
H6       H      0.276700000000     0.692800000000     0.223400000000     0          
O3       O      0.500000000000     0.323480000000     0.140740000000     0          
O1       O      0.064700000000     0.186260000000     0.428660000000     0          
O2       O      0.125720000000     0.138120000000     0.405120000000     0          
C1       C      0.109230000000     0.149900000000     0.423180000000     0          
C2       C      0.147870000000     0.116300000000     0.438930000000     0          
C3       C      0.127060000000     0.117500000000     0.458390000000     0          
H1       H      0.088700000000     0.140400000000     0.461800000000     0          
C4       C      0.161620000000     0.085400000000     0.473140000000     0          
H2       H      0.144700000000     0.083000000000     0.486400000000     0          
C5       C      0.220310000000     0.056900000000     0.468810000000     0          
C6       C      0.241600000000     0.058200000000     0.449160000000     0          
H3       H      0.281700000000     0.038600000000     0.445800000000     0          
C7       C      0.205100000000     0.087500000000     0.434460000000     0          
H4       H      0.220200000000     0.087600000000     0.421000000000     0          
C8       C      0.259310000000     0.025200000000     0.484900000000     0          
C9       C      0.325420000000     0.025900000000     0.484000000000     0          
H5       H      0.347200000000     0.043600000000     0.472700000000     0          
C12      C      0.464700000000     0.014700000000     0.485400000000     0          
H6       H      0.442800000000     0.026700000000     0.473400000000     0          
N1       N      0.225940000000     0.000000000000     0.500000000000     0          
C10      C      0.360200000000     0.000000000000     0.500000000000     0          
C11      C      0.432600000000     0.000000000000     0.500000000000     0          
O1       O      0.563740000000     0.314700000000     0.178660000000     0          
O2       O      0.611880000000     0.375720000000     0.155120000000     0          
C1       C      0.600100000000     0.359230000000     0.173180000000     0          
C2       C      0.633700000000     0.397870000000     0.188930000000     0          
C3       C      0.632500000000     0.377060000000     0.208390000000     0          
H1       H      0.609600000000     0.338700000000     0.211800000000     0          
C4       C      0.664600000000     0.411620000000     0.223140000000     0          
H2       H      0.667000000000     0.394700000000     0.236400000000     0          
C5       C      0.693100000000     0.470310000000     0.218810000000     0          
C6       C      0.691800000000     0.491600000000     0.199160000000     0          
H3       H      0.711400000000     0.531700000000     0.195800000000     0          
C7       C      0.662500000000     0.455100000000     0.184460000000     0          
H4       H      0.662400000000     0.470200000000     0.171000000000     0          
C8       C      0.724800000000     0.509310000000     0.234900000000     0          
C9       C      0.724100000000     0.575420000000     0.234000000000     0          
H5       H      0.706400000000     0.597200000000     0.222700000000     0          
C12      C      0.735300000000     0.714700000000     0.235400000000     0          
H6       H      0.723300000000     0.692800000000     0.223400000000     0          
N1       N      0.750000000000     0.475940000000     0.250000000000     0          
C10      C      0.750000000000     0.610200000000     0.250000000000     0          
C11      C      0.750000000000     0.682600000000     0.250000000000     0          
O1       O      0.435300000000     0.813740000000     0.928660000000     0          
O2       O      0.374280000000     0.861880000000     0.905120000000     0          
C1       C      0.390770000000     0.850100000000     0.923180000000     0          
C2       C      0.352130000000     0.883700000000     0.938930000000     0          
C3       C      0.372940000000     0.882500000000     0.958390000000     0          
H1       H      0.411300000000     0.859600000000     0.961800000000     0          
C4       C      0.338380000000     0.914600000000     0.973140000000     0          
H2       H      0.355300000000     0.917000000000     0.986400000000     0          
C5       C      0.279690000000     0.943100000000     0.968810000000     0          
C6       C      0.258400000000     0.941800000000     0.949160000000     0          
H3       H      0.218300000000     0.961400000000     0.945800000000     0          
C7       C      0.294900000000     0.912500000000     0.934460000000     0          
H4       H      0.279800000000     0.912400000000     0.921000000000     0          
C8       C      0.240690000000     0.974800000000     0.984900000000     0          
C9       C      0.174580000000     0.974100000000     0.984000000000     0          
H5       H      0.152800000000     0.956400000000     0.972700000000     0          
C12      C      0.035300000000     0.985300000000     0.985400000000     0          
H6       H      0.057200000000     0.973300000000     0.973400000000     0          
N1       N      0.274060000000     0.000000000000     0.000000000000     0          
C10      C      0.139800000000     0.000000000000     0.000000000000     0          
C11      C      0.067400000000     0.000000000000     0.000000000000     0          
O1       O      0.936260000000     0.685300000000     0.678660000000     0          
O2       O      0.888120000000     0.624280000000     0.655120000000     0          
C1       C      0.899900000000     0.640770000000     0.673180000000     0          
C2       C      0.866300000000     0.602130000000     0.688930000000     0          
C3       C      0.867500000000     0.622940000000     0.708390000000     0          
H1       H      0.890400000000     0.661300000000     0.711800000000     0          
C4       C      0.835400000000     0.588380000000     0.723140000000     0          
H2       H      0.833000000000     0.605300000000     0.736400000000     0          
C5       C      0.806900000000     0.529690000000     0.718810000000     0          
C6       C      0.808200000000     0.508400000000     0.699160000000     0          
H3       H      0.788600000000     0.468300000000     0.695800000000     0          
C7       C      0.837500000000     0.544900000000     0.684460000000     0          
H4       H      0.837600000000     0.529800000000     0.671000000000     0          
C8       C      0.775200000000     0.490690000000     0.734900000000     0          
C9       C      0.775900000000     0.424580000000     0.734000000000     0          
H5       H      0.793600000000     0.402800000000     0.722700000000     0          
C12      C      0.764700000000     0.285300000000     0.735400000000     0          
H6       H      0.776700000000     0.307200000000     0.723400000000     0          
N1       N      0.750000000000     0.524060000000     0.750000000000     0          
C10      C      0.750000000000     0.389800000000     0.750000000000     0          
C11      C      0.750000000000     0.317400000000     0.750000000000     0          
O1       O      0.064700000000     0.813740000000     0.571340000000     0          
O2       O      0.125720000000     0.861880000000     0.594880000000     0          
C1       C      0.109230000000     0.850100000000     0.576820000000     0          
C2       C      0.147870000000     0.883700000000     0.561070000000     0          
C3       C      0.127060000000     0.882500000000     0.541610000000     0          
H1       H      0.088700000000     0.859600000000     0.538200000000     0          
C4       C      0.161620000000     0.914600000000     0.526860000000     0          
H2       H      0.144700000000     0.917000000000     0.513600000000     0          
C5       C      0.220310000000     0.943100000000     0.531190000000     0          
C6       C      0.241600000000     0.941800000000     0.550840000000     0          
H3       H      0.281700000000     0.961400000000     0.554200000000     0          
C7       C      0.205100000000     0.912500000000     0.565540000000     0          
H4       H      0.220200000000     0.912400000000     0.579000000000     0          
C8       C      0.259310000000     0.974800000000     0.515100000000     0          
C9       C      0.325420000000     0.974100000000     0.516000000000     0          
H5       H      0.347200000000     0.956400000000     0.527300000000     0          
C12      C      0.464700000000     0.985300000000     0.514600000000     0          
H6       H      0.442800000000     0.973300000000     0.526600000000     0          
O1       O      0.936260000000     0.314700000000     0.321340000000     0          
O2       O      0.888120000000     0.375720000000     0.344880000000     0          
C1       C      0.899900000000     0.359230000000     0.326820000000     0          
C2       C      0.866300000000     0.397870000000     0.311070000000     0          
C3       C      0.867500000000     0.377060000000     0.291610000000     0          
H1       H      0.890400000000     0.338700000000     0.288200000000     0          
C4       C      0.835400000000     0.411620000000     0.276860000000     0          
H2       H      0.833000000000     0.394700000000     0.263600000000     0          
C5       C      0.806900000000     0.470310000000     0.281190000000     0          
C6       C      0.808200000000     0.491600000000     0.300840000000     0          
H3       H      0.788600000000     0.531700000000     0.304200000000     0          
C7       C      0.837500000000     0.455100000000     0.315540000000     0          
H4       H      0.837600000000     0.470200000000     0.329000000000     0          
C8       C      0.775200000000     0.509310000000     0.265100000000     0          
C9       C      0.775900000000     0.575420000000     0.266000000000     0          
H5       H      0.793600000000     0.597200000000     0.277300000000     0          
C12      C      0.764700000000     0.714700000000     0.264600000000     0          
H6       H      0.776700000000     0.692800000000     0.276600000000     0          
O1       O      0.435300000000     0.186260000000     0.071340000000     0          
O2       O      0.374280000000     0.138120000000     0.094880000000     0          
C1       C      0.390770000000     0.149900000000     0.076820000000     0          
C2       C      0.352130000000     0.116300000000     0.061070000000     0          
C3       C      0.372940000000     0.117500000000     0.041610000000     0          
H1       H      0.411300000000     0.140400000000     0.038200000000     0          
C4       C      0.338380000000     0.085400000000     0.026860000000     0          
H2       H      0.355300000000     0.083000000000     0.013600000000     0          
C5       C      0.279690000000     0.056900000000     0.031190000000     0          
C6       C      0.258400000000     0.058200000000     0.050840000000     0          
H3       H      0.218300000000     0.038600000000     0.054200000000     0          
C7       C      0.294900000000     0.087500000000     0.065540000000     0          
H4       H      0.279800000000     0.087600000000     0.079000000000     0          
C8       C      0.240690000000     0.025200000000     0.015100000000     0          
C9       C      0.174580000000     0.025900000000     0.016000000000     0          
H5       H      0.152800000000     0.043600000000     0.027300000000     0          
C12      C      0.035300000000     0.014700000000     0.014600000000     0          
H6       H      0.057200000000     0.026700000000     0.026600000000     0          
O1       O      0.563740000000     0.685300000000     0.821340000000     0          
O2       O      0.611880000000     0.624280000000     0.844880000000     0          
C1       C      0.600100000000     0.640770000000     0.826820000000     0          
C2       C      0.633700000000     0.602130000000     0.811070000000     0          
C3       C      0.632500000000     0.622940000000     0.791610000000     0          
H1       H      0.609600000000     0.661300000000     0.788200000000     0          
C4       C      0.664600000000     0.588380000000     0.776860000000     0          
H2       H      0.667000000000     0.605300000000     0.763600000000     0          
C5       C      0.693100000000     0.529690000000     0.781190000000     0          
C6       C      0.691800000000     0.508400000000     0.800840000000     0          
H3       H      0.711400000000     0.468300000000     0.804200000000     0          
C7       C      0.662500000000     0.544900000000     0.815540000000     0          
H4       H      0.662400000000     0.529800000000     0.829000000000     0          
C8       C      0.724800000000     0.490690000000     0.765100000000     0          
C9       C      0.724100000000     0.424580000000     0.766000000000     0          
H5       H      0.706400000000     0.402800000000     0.777300000000     0          
C12      C      0.735300000000     0.285300000000     0.764600000000     0          
H6       H      0.723300000000     0.307200000000     0.776600000000     0          


