data_GEDXEV

_audit_creation_method RASPA-1.0
_audit_creation_date 2020-11-2
_audit_author_name 'Rocio Bueno-Perez'

_cell_length_a    28.151
_cell_length_b    28.1718
_cell_length_c    39.9493
_cell_angle_alpha 90
_cell_angle_beta  90
_cell_angle_gamma 90
_cell_volume      31682.4

_symmetry_cell_setting          triclinic
_symmetry_space_group_name_Hall 'P 1'
_symmetry_space_group_name_H-M  'P 1'
_symmetry_Int_Tables_number     1

_symmetry_equiv_pos_as_xyz 'x,y,z'

loop_
_atom_site_label
_atom_site_type_symbol
_atom_site_fract_x
_atom_site_fract_y
_atom_site_fract_z
_atom_site_charge
Zr1      Zr     0.062150000000     0.311870000000     0.146090000000     0          
O2       O      0.090170000000     0.337220000000     0.195060000000     0          
O3       O      0.050700000000     0.300700000000     0.233940000000     0          
O4       O      0.453620000000     0.703030000000     0.555660000000     0          
O5       O      0.410490000000     0.658650000000     0.598330000000     0          
O6       O      0.137830000000     0.290420000000     0.144810000000     0          
O7       O      0.041700000000     0.387840000000     0.147830000000     0          
C8       C      0.081600000000     0.326800000000     0.225350000000     0          
C9       C      0.112100000000     0.347900000000     0.251200000000     0          
C10      C      0.102800000000     0.336200000000     0.285000000000     0          
H11      H      0.078730000000     0.315100000000     0.290630000000     0          
C12      C      0.131100000000     0.357500000000     0.309700000000     0          
H13      H      0.123560000000     0.353400000000     0.332140000000     0          
C14      C      0.170200000000     0.384700000000     0.300800000000     0          
C15      C      0.176500000000     0.398100000000     0.267100000000     0          
H16      H      0.198440000000     0.421380000000     0.261320000000     0          
C17      C      0.149600000000     0.375800000000     0.242600000000     0          
H18      H      0.157190000000     0.380030000000     0.220170000000     0          
C19      C      0.197600000000     0.411000000000     0.325000000000     0          
C20      C      0.216700000000     0.425900000000     0.349100000000     0          
C21      C      0.246800000000     0.449500000000     0.372800000000     0          
C22      C      0.221100000000     0.469100000000     0.399200000000     0          
H23      H      0.189450000000     0.460760000000     0.402350000000     0          
C24      C      0.243000000000     0.501500000000     0.420800000000     0          
C25      C      0.292100000000     0.504300000000     0.420900000000     0          
C26      C      0.317800000000     0.484100000000     0.395500000000     0          
H27      H      0.350440000000     0.489020000000     0.394540000000     0          
C28      C      0.296000000000     0.456400000000     0.371200000000     0          
C29      C      0.219300000000     0.519400000000     0.452500000000     0          
H30      H      0.185490000000     0.516220000000     0.450450000000     0          
H31      H      0.230220000000     0.501220000000     0.471300000000     0          
H32      H      0.227250000000     0.552250000000     0.455790000000     0          
C33      C      0.322200000000     0.424100000000     0.348100000000     0          
H34      H      0.300060000000     0.408560000000     0.333470000000     0          
H35      H      0.344430000000     0.442120000000     0.335070000000     0          
H36      H      0.339010000000     0.400650000000     0.360960000000     0          
C37      C      0.315700000000     0.530700000000     0.447500000000     0          
C38      C      0.336400000000     0.555500000000     0.465500000000     0          
C39      C      0.357500000000     0.584600000000     0.491900000000     0          
C40      C      0.396600000000     0.612000000000     0.484600000000     0          
H41      H      0.409090000000     0.611400000000     0.463110000000     0          
C42      C      0.417700000000     0.640300000000     0.508700000000     0          
H43      H      0.443790000000     0.659030000000     0.503330000000     0          
C44      C      0.398800000000     0.640300000000     0.541400000000     0          
C45      C      0.359600000000     0.613400000000     0.548900000000     0          
H46      H      0.345520000000     0.615600000000     0.569930000000     0          
C47      C      0.340700000000     0.582600000000     0.524600000000     0          
H48      H      0.317170000000     0.560950000000     0.530330000000     0          
C49      C      0.422100000000     0.669900000000     0.568150000000     0          
C50      C      0.234200000000     0.292900000000     0.134600000000     0          
H51      H      0.217650000000     0.321450000000     0.135660000000     0          
C52      C      0.283100000000     0.293100000000     0.129600000000     0          
H53      H      0.299220000000     0.321810000000     0.127630000000     0          
C54      C      0.473400000000     0.291900000000     0.121200000000     0          
C55      C      0.042800000000     0.483900000000     0.153200000000     0          
H56      H      0.071310000000     0.467260000000     0.153080000000     0          
C57      C      0.042700000000     0.533800000000     0.154600000000     0          
H58      H      0.071040000000     0.550490000000     0.152950000000     0          
C59      C      0.041300000000     0.727100000000     0.166300000000     0          
C60      C      0.082300000000     0.692700000000     0.166200000000     0          
H61      H      0.070390000000     0.660770000000     0.166220000000     0          
H62      H      0.101290000000     0.697690000000     0.146530000000     0          
H63      H      0.101460000000     0.697690000000     0.185770000000     0          
Zr64     Zr     0.562150000000     0.811870000000     0.646090000000     0          
O65      O      0.590170000000     0.837220000000     0.695060000000     0          
O66      O      0.550700000000     0.800700000000     0.733940000000     0          
O67      O      0.953620000000     0.203030000000     0.055660000000     0          
O68      O      0.910490000000     0.158650000000     0.098330000000     0          
O69      O      0.637830000000     0.790420000000     0.644810000000     0          
O70      O      0.541700000000     0.887840000000     0.647830000000     0          
C71      C      0.581600000000     0.826800000000     0.725350000000     0          
C72      C      0.612100000000     0.847900000000     0.751200000000     0          
C73      C      0.602800000000     0.836200000000     0.785000000000     0          
H74      H      0.578730000000     0.815100000000     0.790630000000     0          
C75      C      0.631100000000     0.857500000000     0.809700000000     0          
H76      H      0.623560000000     0.853400000000     0.832140000000     0          
C77      C      0.670200000000     0.884700000000     0.800800000000     0          
C78      C      0.676500000000     0.898100000000     0.767100000000     0          
H79      H      0.698440000000     0.921380000000     0.761320000000     0          
C80      C      0.649600000000     0.875800000000     0.742600000000     0          
H81      H      0.657190000000     0.880030000000     0.720170000000     0          
C82      C      0.697600000000     0.911000000000     0.825000000000     0          
C83      C      0.716700000000     0.925900000000     0.849100000000     0          
C84      C      0.746800000000     0.949500000000     0.872800000000     0          
C85      C      0.721100000000     0.969100000000     0.899200000000     0          
H86      H      0.689450000000     0.960760000000     0.902350000000     0          
C87      C      0.743000000000     0.001500000000     0.920800000000     0          
C88      C      0.792100000000     0.004300000000     0.920900000000     0          
C89      C      0.817800000000     0.984100000000     0.895500000000     0          
H90      H      0.850440000000     0.989020000000     0.894540000000     0          
C91      C      0.796000000000     0.956400000000     0.871200000000     0          
C92      C      0.719300000000     0.019400000000     0.952500000000     0          
H93      H      0.685490000000     0.016220000000     0.950450000000     0          
H94      H      0.730220000000     0.001220000000     0.971300000000     0          
H95      H      0.727250000000     0.052250000000     0.955790000000     0          
C96      C      0.822200000000     0.924100000000     0.848100000000     0          
H97      H      0.800060000000     0.908560000000     0.833470000000     0          
H98      H      0.844430000000     0.942120000000     0.835070000000     0          
H99      H      0.839010000000     0.900650000000     0.860960000000     0          
C100     C      0.815700000000     0.030700000000     0.947500000000     0          
C101     C      0.836400000000     0.055500000000     0.965500000000     0          
C102     C      0.857500000000     0.084600000000     0.991900000000     0          
C103     C      0.896600000000     0.112000000000     0.984600000000     0          
H104     H      0.909090000000     0.111400000000     0.963110000000     0          
C105     C      0.917700000000     0.140300000000     0.008700000000     0          
H106     H      0.943790000000     0.159030000000     0.003330000000     0          
C107     C      0.898800000000     0.140300000000     0.041400000000     0          
C108     C      0.859600000000     0.113400000000     0.048900000000     0          
H109     H      0.845520000000     0.115600000000     0.069930000000     0          
C110     C      0.840700000000     0.082600000000     0.024600000000     0          
H111     H      0.817170000000     0.060950000000     0.030330000000     0          
C112     C      0.922100000000     0.169900000000     0.068150000000     0          
C113     C      0.734200000000     0.792900000000     0.634600000000     0          
H114     H      0.717650000000     0.821450000000     0.635660000000     0          
C115     C      0.783100000000     0.793100000000     0.629600000000     0          
H116     H      0.799220000000     0.821810000000     0.627630000000     0          
C117     C      0.973400000000     0.791900000000     0.621200000000     0          
C118     C      0.961000000000     0.843000000000     0.623400000000     0          
H119     H      0.989590000000     0.861510000000     0.624870000000     0          
H120     H      0.943560000000     0.852170000000     0.603790000000     0          
H121     H      0.941910000000     0.848390000000     0.642920000000     0          
C122     C      0.542800000000     0.983900000000     0.653200000000     0          
H123     H      0.571310000000     0.967260000000     0.653080000000     0          
C124     C      0.542700000000     0.033800000000     0.654600000000     0          
H125     H      0.571040000000     0.050490000000     0.652950000000     0          
C126     C      0.541300000000     0.227100000000     0.666300000000     0          
C127     C      0.582300000000     0.192700000000     0.666200000000     0          
H128     H      0.570390000000     0.160770000000     0.666220000000     0          
H129     H      0.601290000000     0.197690000000     0.646530000000     0          
H130     H      0.601460000000     0.197690000000     0.685770000000     0          
Zr131    Zr     0.937850000000     0.188130000000     0.146090000000     0          
O132     O      0.909830000000     0.162780000000     0.195060000000     0          
O133     O      0.949300000000     0.199300000000     0.233940000000     0          
O134     O      0.546380000000     0.796970000000     0.555660000000     0          
O135     O      0.589510000000     0.841350000000     0.598330000000     0          
O136     O      0.862170000000     0.209580000000     0.144810000000     0          
O137     O      0.958300000000     0.112160000000     0.147830000000     0          
C138     C      0.918400000000     0.173200000000     0.225350000000     0          
C139     C      0.887900000000     0.152100000000     0.251200000000     0          
C140     C      0.897200000000     0.163800000000     0.285000000000     0          
H141     H      0.921270000000     0.184900000000     0.290630000000     0          
C142     C      0.868900000000     0.142500000000     0.309700000000     0          
H143     H      0.876440000000     0.146600000000     0.332140000000     0          
C144     C      0.829800000000     0.115300000000     0.300800000000     0          
C145     C      0.823500000000     0.101900000000     0.267100000000     0          
H146     H      0.801560000000     0.078620000000     0.261320000000     0          
C147     C      0.850400000000     0.124200000000     0.242600000000     0          
H148     H      0.842810000000     0.119970000000     0.220170000000     0          
C149     C      0.802400000000     0.089000000000     0.325000000000     0          
C150     C      0.783300000000     0.074100000000     0.349100000000     0          
C151     C      0.753200000000     0.050500000000     0.372800000000     0          
C152     C      0.778900000000     0.030900000000     0.399200000000     0          
H153     H      0.810550000000     0.039240000000     0.402350000000     0          
C154     C      0.757000000000     0.998500000000     0.420800000000     0          
C155     C      0.707900000000     0.995700000000     0.420900000000     0          
C156     C      0.682200000000     0.015900000000     0.395500000000     0          
H157     H      0.649560000000     0.010980000000     0.394540000000     0          
C158     C      0.704000000000     0.043600000000     0.371200000000     0          
C159     C      0.780700000000     0.980600000000     0.452500000000     0          
H160     H      0.814510000000     0.983780000000     0.450450000000     0          
H161     H      0.769780000000     0.998780000000     0.471300000000     0          
H162     H      0.772750000000     0.947750000000     0.455790000000     0          
C163     C      0.677800000000     0.075900000000     0.348100000000     0          
H164     H      0.699940000000     0.091440000000     0.333470000000     0          
H165     H      0.655570000000     0.057880000000     0.335070000000     0          
H166     H      0.660990000000     0.099350000000     0.360960000000     0          
C167     C      0.684300000000     0.969300000000     0.447500000000     0          
C168     C      0.663600000000     0.944500000000     0.465500000000     0          
C169     C      0.642500000000     0.915400000000     0.491900000000     0          
C170     C      0.603400000000     0.888000000000     0.484600000000     0          
H171     H      0.590910000000     0.888600000000     0.463110000000     0          
C172     C      0.582300000000     0.859700000000     0.508700000000     0          
H173     H      0.556210000000     0.840970000000     0.503330000000     0          
C174     C      0.601200000000     0.859700000000     0.541400000000     0          
C175     C      0.640400000000     0.886600000000     0.548900000000     0          
H176     H      0.654480000000     0.884400000000     0.569930000000     0          
C177     C      0.659300000000     0.917400000000     0.524600000000     0          
H178     H      0.682830000000     0.939050000000     0.530330000000     0          
C179     C      0.577900000000     0.830100000000     0.568150000000     0          
C180     C      0.765800000000     0.207100000000     0.134600000000     0          
H181     H      0.782350000000     0.178550000000     0.135660000000     0          
C182     C      0.716900000000     0.206900000000     0.129600000000     0          
H183     H      0.700780000000     0.178190000000     0.127630000000     0          
C184     C      0.526600000000     0.208100000000     0.121200000000     0          
C185     C      0.957200000000     0.016100000000     0.153200000000     0          
H186     H      0.928690000000     0.032740000000     0.153080000000     0          
C187     C      0.957300000000     0.966200000000     0.154600000000     0          
H188     H      0.928960000000     0.949510000000     0.152950000000     0          
C189     C      0.958700000000     0.772900000000     0.166300000000     0          
C190     C      0.917700000000     0.807300000000     0.166200000000     0          
H191     H      0.929610000000     0.839230000000     0.166220000000     0          
H192     H      0.898710000000     0.802310000000     0.146530000000     0          
H193     H      0.898540000000     0.802310000000     0.185770000000     0          
Zr194    Zr     0.437850000000     0.688130000000     0.646090000000     0          
O195     O      0.409830000000     0.662780000000     0.695060000000     0          
O196     O      0.449300000000     0.699300000000     0.733940000000     0          
O197     O      0.046380000000     0.296970000000     0.055660000000     0          
O198     O      0.089510000000     0.341350000000     0.098330000000     0          
O199     O      0.362170000000     0.709580000000     0.644810000000     0          
O200     O      0.458300000000     0.612160000000     0.647830000000     0          
C201     C      0.418400000000     0.673200000000     0.725350000000     0          
C202     C      0.387900000000     0.652100000000     0.751200000000     0          
C203     C      0.397200000000     0.663800000000     0.785000000000     0          
H204     H      0.421270000000     0.684900000000     0.790630000000     0          
C205     C      0.368900000000     0.642500000000     0.809700000000     0          
H206     H      0.376440000000     0.646600000000     0.832140000000     0          
C207     C      0.329800000000     0.615300000000     0.800800000000     0          
C208     C      0.323500000000     0.601900000000     0.767100000000     0          
H209     H      0.301560000000     0.578620000000     0.761320000000     0          
C210     C      0.350400000000     0.624200000000     0.742600000000     0          
H211     H      0.342810000000     0.619970000000     0.720170000000     0          
C212     C      0.302400000000     0.589000000000     0.825000000000     0          
C213     C      0.283300000000     0.574100000000     0.849100000000     0          
C214     C      0.253200000000     0.550500000000     0.872800000000     0          
C215     C      0.278900000000     0.530900000000     0.899200000000     0          
H216     H      0.310550000000     0.539240000000     0.902350000000     0          
C217     C      0.257000000000     0.498500000000     0.920800000000     0          
C218     C      0.207900000000     0.495700000000     0.920900000000     0          
C219     C      0.182200000000     0.515900000000     0.895500000000     0          
H220     H      0.149560000000     0.510980000000     0.894540000000     0          
C221     C      0.204000000000     0.543600000000     0.871200000000     0          
C222     C      0.280700000000     0.480600000000     0.952500000000     0          
H223     H      0.314510000000     0.483780000000     0.950450000000     0          
H224     H      0.269780000000     0.498780000000     0.971300000000     0          
H225     H      0.272750000000     0.447750000000     0.955790000000     0          
C226     C      0.177800000000     0.575900000000     0.848100000000     0          
H227     H      0.199940000000     0.591440000000     0.833470000000     0          
H228     H      0.155570000000     0.557880000000     0.835070000000     0          
H229     H      0.160990000000     0.599350000000     0.860960000000     0          
C230     C      0.184300000000     0.469300000000     0.947500000000     0          
C231     C      0.163600000000     0.444500000000     0.965500000000     0          
C232     C      0.142500000000     0.415400000000     0.991900000000     0          
C233     C      0.103400000000     0.388000000000     0.984600000000     0          
H234     H      0.090910000000     0.388600000000     0.963110000000     0          
C235     C      0.082300000000     0.359700000000     0.008700000000     0          
H236     H      0.056210000000     0.340970000000     0.003330000000     0          
C237     C      0.101200000000     0.359700000000     0.041400000000     0          
C238     C      0.140400000000     0.386600000000     0.048900000000     0          
H239     H      0.154480000000     0.384400000000     0.069930000000     0          
C240     C      0.159300000000     0.417400000000     0.024600000000     0          
H241     H      0.182830000000     0.439050000000     0.030330000000     0          
C242     C      0.077900000000     0.330100000000     0.068150000000     0          
C243     C      0.265800000000     0.707100000000     0.634600000000     0          
H244     H      0.282350000000     0.678550000000     0.635660000000     0          
C245     C      0.216900000000     0.706900000000     0.629600000000     0          
H246     H      0.200780000000     0.678190000000     0.627630000000     0          
C247     C      0.026600000000     0.708100000000     0.621200000000     0          
C248     C      0.039000000000     0.657000000000     0.623400000000     0          
H249     H      0.010410000000     0.638490000000     0.624870000000     0          
H250     H      0.056440000000     0.647830000000     0.603790000000     0          
H251     H      0.058090000000     0.651610000000     0.642920000000     0          
C252     C      0.457200000000     0.516100000000     0.653200000000     0          
H253     H      0.428690000000     0.532740000000     0.653080000000     0          
C254     C      0.457300000000     0.466200000000     0.654600000000     0          
H255     H      0.428960000000     0.449510000000     0.652950000000     0          
C256     C      0.458700000000     0.272900000000     0.666300000000     0          
C257     C      0.417700000000     0.307300000000     0.666200000000     0          
H258     H      0.429610000000     0.339230000000     0.666220000000     0          
H259     H      0.398710000000     0.302310000000     0.646530000000     0          
H260     H      0.398540000000     0.302310000000     0.685770000000     0          
Zr261    Zr     0.937850000000     0.811870000000     0.853910000000     0          
O262     O      0.909830000000     0.837220000000     0.804940000000     0          
O263     O      0.949300000000     0.800700000000     0.766060000000     0          
O264     O      0.546380000000     0.203030000000     0.444340000000     0          
O265     O      0.589510000000     0.158650000000     0.401670000000     0          
O266     O      0.862170000000     0.790420000000     0.855190000000     0          
O267     O      0.958300000000     0.887840000000     0.852170000000     0          
C268     C      0.918400000000     0.826800000000     0.774650000000     0          
C269     C      0.887900000000     0.847900000000     0.748800000000     0          
C270     C      0.897200000000     0.836200000000     0.715000000000     0          
H271     H      0.921270000000     0.815100000000     0.709370000000     0          
C272     C      0.868900000000     0.857500000000     0.690300000000     0          
H273     H      0.876440000000     0.853400000000     0.667860000000     0          
C274     C      0.829800000000     0.884700000000     0.699200000000     0          
C275     C      0.823500000000     0.898100000000     0.732900000000     0          
H276     H      0.801560000000     0.921380000000     0.738680000000     0          
C277     C      0.850400000000     0.875800000000     0.757400000000     0          
H278     H      0.842810000000     0.880030000000     0.779830000000     0          
C279     C      0.802400000000     0.911000000000     0.675000000000     0          
C280     C      0.783300000000     0.925900000000     0.650900000000     0          
C281     C      0.753200000000     0.949500000000     0.627200000000     0          
C282     C      0.778900000000     0.969100000000     0.600800000000     0          
H283     H      0.810550000000     0.960760000000     0.597650000000     0          
C284     C      0.757000000000     0.001500000000     0.579200000000     0          
C285     C      0.707900000000     0.004300000000     0.579100000000     0          
C286     C      0.682200000000     0.984100000000     0.604500000000     0          
H287     H      0.649560000000     0.989020000000     0.605460000000     0          
C288     C      0.704000000000     0.956400000000     0.628800000000     0          
C289     C      0.780700000000     0.019400000000     0.547500000000     0          
H290     H      0.814510000000     0.016220000000     0.549550000000     0          
H291     H      0.769780000000     0.001220000000     0.528700000000     0          
H292     H      0.772750000000     0.052250000000     0.544210000000     0          
C293     C      0.677800000000     0.924100000000     0.651900000000     0          
H294     H      0.699940000000     0.908560000000     0.666530000000     0          
H295     H      0.655570000000     0.942120000000     0.664930000000     0          
H296     H      0.660990000000     0.900650000000     0.639040000000     0          
C297     C      0.684300000000     0.030700000000     0.552500000000     0          
C298     C      0.663600000000     0.055500000000     0.534500000000     0          
C299     C      0.642500000000     0.084600000000     0.508100000000     0          
C300     C      0.603400000000     0.112000000000     0.515400000000     0          
H301     H      0.590910000000     0.111400000000     0.536890000000     0          
C302     C      0.582300000000     0.140300000000     0.491300000000     0          
H303     H      0.556210000000     0.159030000000     0.496670000000     0          
C304     C      0.601200000000     0.140300000000     0.458600000000     0          
C305     C      0.640400000000     0.113400000000     0.451100000000     0          
H306     H      0.654480000000     0.115600000000     0.430070000000     0          
C307     C      0.659300000000     0.082600000000     0.475400000000     0          
H308     H      0.682830000000     0.060950000000     0.469670000000     0          
C309     C      0.577900000000     0.169900000000     0.431850000000     0          
C310     C      0.765800000000     0.792900000000     0.865400000000     0          
H311     H      0.782350000000     0.821450000000     0.864340000000     0          
C312     C      0.716900000000     0.793100000000     0.870400000000     0          
H313     H      0.700780000000     0.821810000000     0.872370000000     0          
C314     C      0.526600000000     0.791900000000     0.878800000000     0          
C315     C      0.957200000000     0.983900000000     0.846800000000     0          
H316     H      0.928690000000     0.967260000000     0.846920000000     0          
C317     C      0.957300000000     0.033800000000     0.845400000000     0          
H318     H      0.928960000000     0.050490000000     0.847050000000     0          
C319     C      0.958700000000     0.227100000000     0.833700000000     0          
C320     C      0.917700000000     0.192700000000     0.833800000000     0          
H321     H      0.929610000000     0.160770000000     0.833780000000     0          
H322     H      0.898710000000     0.197690000000     0.853470000000     0          
H323     H      0.898540000000     0.197690000000     0.814230000000     0          
Zr324    Zr     0.437850000000     0.311870000000     0.353910000000     0          
O325     O      0.409830000000     0.337220000000     0.304940000000     0          
O326     O      0.449300000000     0.300700000000     0.266060000000     0          
O327     O      0.046380000000     0.703030000000     0.944340000000     0          
O328     O      0.089510000000     0.658650000000     0.901670000000     0          
O329     O      0.362170000000     0.290420000000     0.355190000000     0          
O330     O      0.458300000000     0.387840000000     0.352170000000     0          
C331     C      0.418400000000     0.326800000000     0.274650000000     0          
C332     C      0.387900000000     0.347900000000     0.248800000000     0          
C333     C      0.397200000000     0.336200000000     0.215000000000     0          
H334     H      0.421270000000     0.315100000000     0.209370000000     0          
C335     C      0.368900000000     0.357500000000     0.190300000000     0          
H336     H      0.376440000000     0.353400000000     0.167860000000     0          
C337     C      0.329800000000     0.384700000000     0.199200000000     0          
C338     C      0.323500000000     0.398100000000     0.232900000000     0          
H339     H      0.301560000000     0.421380000000     0.238680000000     0          
C340     C      0.350400000000     0.375800000000     0.257400000000     0          
H341     H      0.342810000000     0.380030000000     0.279830000000     0          
C342     C      0.302400000000     0.411000000000     0.175000000000     0          
C343     C      0.283300000000     0.425900000000     0.150900000000     0          
C344     C      0.253200000000     0.449500000000     0.127200000000     0          
C345     C      0.278900000000     0.469100000000     0.100800000000     0          
H346     H      0.310550000000     0.460760000000     0.097650000000     0          
C347     C      0.257000000000     0.501500000000     0.079200000000     0          
C348     C      0.207900000000     0.504300000000     0.079100000000     0          
C349     C      0.182200000000     0.484100000000     0.104500000000     0          
H350     H      0.149560000000     0.489020000000     0.105460000000     0          
C351     C      0.204000000000     0.456400000000     0.128800000000     0          
C352     C      0.280700000000     0.519400000000     0.047500000000     0          
H353     H      0.314510000000     0.516220000000     0.049550000000     0          
H354     H      0.269780000000     0.501220000000     0.028700000000     0          
H355     H      0.272750000000     0.552250000000     0.044210000000     0          
C356     C      0.177800000000     0.424100000000     0.151900000000     0          
H357     H      0.199940000000     0.408560000000     0.166530000000     0          
H358     H      0.155570000000     0.442120000000     0.164930000000     0          
H359     H      0.160990000000     0.400650000000     0.139040000000     0          
C360     C      0.184300000000     0.530700000000     0.052500000000     0          
C361     C      0.163600000000     0.555500000000     0.034500000000     0          
C362     C      0.142500000000     0.584600000000     0.008100000000     0          
C363     C      0.103400000000     0.612000000000     0.015400000000     0          
H364     H      0.090910000000     0.611400000000     0.036890000000     0          
C365     C      0.082300000000     0.640300000000     0.991300000000     0          
H366     H      0.056210000000     0.659030000000     0.996670000000     0          
C367     C      0.101200000000     0.640300000000     0.958600000000     0          
C368     C      0.140400000000     0.613400000000     0.951100000000     0          
H369     H      0.154480000000     0.615600000000     0.930070000000     0          
C370     C      0.159300000000     0.582600000000     0.975400000000     0          
H371     H      0.182830000000     0.560950000000     0.969670000000     0          
C372     C      0.077900000000     0.669900000000     0.931850000000     0          
C373     C      0.265800000000     0.292900000000     0.365400000000     0          
H374     H      0.282350000000     0.321450000000     0.364340000000     0          
C375     C      0.216900000000     0.293100000000     0.370400000000     0          
H376     H      0.200780000000     0.321810000000     0.372370000000     0          
C377     C      0.026600000000     0.291900000000     0.378800000000     0          
C378     C      0.457200000000     0.483900000000     0.346800000000     0          
H379     H      0.428690000000     0.467260000000     0.346920000000     0          
C380     C      0.457300000000     0.533800000000     0.345400000000     0          
H381     H      0.428960000000     0.550490000000     0.347050000000     0          
C382     C      0.458700000000     0.727100000000     0.333700000000     0          
C383     C      0.417700000000     0.692700000000     0.333800000000     0          
H384     H      0.429610000000     0.660770000000     0.333780000000     0          
H385     H      0.398710000000     0.697690000000     0.353470000000     0          
H386     H      0.398540000000     0.697690000000     0.314230000000     0          
Zr387    Zr     0.062150000000     0.688130000000     0.853910000000     0          
O388     O      0.090170000000     0.662780000000     0.804940000000     0          
O389     O      0.050700000000     0.699300000000     0.766060000000     0          
O390     O      0.453620000000     0.296970000000     0.444340000000     0          
O391     O      0.410490000000     0.341350000000     0.401670000000     0          
O392     O      0.137830000000     0.709580000000     0.855190000000     0          
O393     O      0.041700000000     0.612160000000     0.852170000000     0          
C394     C      0.081600000000     0.673200000000     0.774650000000     0          
C395     C      0.112100000000     0.652100000000     0.748800000000     0          
C396     C      0.102800000000     0.663800000000     0.715000000000     0          
H397     H      0.078730000000     0.684900000000     0.709370000000     0          
C398     C      0.131100000000     0.642500000000     0.690300000000     0          
H399     H      0.123560000000     0.646600000000     0.667860000000     0          
C400     C      0.170200000000     0.615300000000     0.699200000000     0          
C401     C      0.176500000000     0.601900000000     0.732900000000     0          
H402     H      0.198440000000     0.578620000000     0.738680000000     0          
C403     C      0.149600000000     0.624200000000     0.757400000000     0          
H404     H      0.157190000000     0.619970000000     0.779830000000     0          
C405     C      0.197600000000     0.589000000000     0.675000000000     0          
C406     C      0.216700000000     0.574100000000     0.650900000000     0          
C407     C      0.246800000000     0.550500000000     0.627200000000     0          
C408     C      0.221100000000     0.530900000000     0.600800000000     0          
H409     H      0.189450000000     0.539240000000     0.597650000000     0          
C410     C      0.243000000000     0.498500000000     0.579200000000     0          
C411     C      0.292100000000     0.495700000000     0.579100000000     0          
C412     C      0.317800000000     0.515900000000     0.604500000000     0          
H413     H      0.350440000000     0.510980000000     0.605460000000     0          
C414     C      0.296000000000     0.543600000000     0.628800000000     0          
C415     C      0.219300000000     0.480600000000     0.547500000000     0          
H416     H      0.185490000000     0.483780000000     0.549550000000     0          
H417     H      0.230220000000     0.498780000000     0.528700000000     0          
H418     H      0.227250000000     0.447750000000     0.544210000000     0          
C419     C      0.322200000000     0.575900000000     0.651900000000     0          
H420     H      0.300060000000     0.591440000000     0.666530000000     0          
H421     H      0.344430000000     0.557880000000     0.664930000000     0          
H422     H      0.339010000000     0.599350000000     0.639040000000     0          
C423     C      0.315700000000     0.469300000000     0.552500000000     0          
C424     C      0.336400000000     0.444500000000     0.534500000000     0          
C425     C      0.357500000000     0.415400000000     0.508100000000     0          
C426     C      0.396600000000     0.388000000000     0.515400000000     0          
H427     H      0.409090000000     0.388600000000     0.536890000000     0          
C428     C      0.417700000000     0.359700000000     0.491300000000     0          
H429     H      0.443790000000     0.340970000000     0.496670000000     0          
C430     C      0.398800000000     0.359700000000     0.458600000000     0          
C431     C      0.359600000000     0.386600000000     0.451100000000     0          
H432     H      0.345520000000     0.384400000000     0.430070000000     0          
C433     C      0.340700000000     0.417400000000     0.475400000000     0          
H434     H      0.317170000000     0.439050000000     0.469670000000     0          
C435     C      0.422100000000     0.330100000000     0.431850000000     0          
C436     C      0.234200000000     0.707100000000     0.865400000000     0          
H437     H      0.217650000000     0.678550000000     0.864340000000     0          
C438     C      0.283100000000     0.706900000000     0.870400000000     0          
H439     H      0.299220000000     0.678190000000     0.872370000000     0          
C440     C      0.473400000000     0.708100000000     0.878800000000     0          
C441     C      0.042800000000     0.516100000000     0.846800000000     0          
H442     H      0.071310000000     0.532740000000     0.846920000000     0          
C443     C      0.042700000000     0.466200000000     0.845400000000     0          
H444     H      0.071040000000     0.449510000000     0.847050000000     0          
C445     C      0.041300000000     0.272900000000     0.833700000000     0          
C446     C      0.082300000000     0.307300000000     0.833800000000     0          
H447     H      0.070390000000     0.339230000000     0.833780000000     0          
H448     H      0.101290000000     0.302310000000     0.853470000000     0          
H449     H      0.101460000000     0.302310000000     0.814230000000     0          
Zr450    Zr     0.562150000000     0.188130000000     0.353910000000     0          
O451     O      0.590170000000     0.162780000000     0.304940000000     0          
O452     O      0.550700000000     0.199300000000     0.266060000000     0          
O453     O      0.953620000000     0.796970000000     0.944340000000     0          
O454     O      0.910490000000     0.841350000000     0.901670000000     0          
O455     O      0.637830000000     0.209580000000     0.355190000000     0          
O456     O      0.541700000000     0.112160000000     0.352170000000     0          
C457     C      0.581600000000     0.173200000000     0.274650000000     0          
C458     C      0.612100000000     0.152100000000     0.248800000000     0          
C459     C      0.602800000000     0.163800000000     0.215000000000     0          
H460     H      0.578730000000     0.184900000000     0.209370000000     0          
C461     C      0.631100000000     0.142500000000     0.190300000000     0          
H462     H      0.623560000000     0.146600000000     0.167860000000     0          
C463     C      0.670200000000     0.115300000000     0.199200000000     0          
C464     C      0.676500000000     0.101900000000     0.232900000000     0          
H465     H      0.698440000000     0.078620000000     0.238680000000     0          
C466     C      0.649600000000     0.124200000000     0.257400000000     0          
H467     H      0.657190000000     0.119970000000     0.279830000000     0          
C468     C      0.697600000000     0.089000000000     0.175000000000     0          
C469     C      0.716700000000     0.074100000000     0.150900000000     0          
C470     C      0.746800000000     0.050500000000     0.127200000000     0          
C471     C      0.721100000000     0.030900000000     0.100800000000     0          
H472     H      0.689450000000     0.039240000000     0.097650000000     0          
C473     C      0.743000000000     0.998500000000     0.079200000000     0          
C474     C      0.792100000000     0.995700000000     0.079100000000     0          
C475     C      0.817800000000     0.015900000000     0.104500000000     0          
H476     H      0.850440000000     0.010980000000     0.105460000000     0          
C477     C      0.796000000000     0.043600000000     0.128800000000     0          
C478     C      0.719300000000     0.980600000000     0.047500000000     0          
H479     H      0.685490000000     0.983780000000     0.049550000000     0          
H480     H      0.730220000000     0.998780000000     0.028700000000     0          
H481     H      0.727250000000     0.947750000000     0.044210000000     0          
C482     C      0.822200000000     0.075900000000     0.151900000000     0          
H483     H      0.800060000000     0.091440000000     0.166530000000     0          
H484     H      0.844430000000     0.057880000000     0.164930000000     0          
H485     H      0.839010000000     0.099350000000     0.139040000000     0          
C486     C      0.815700000000     0.969300000000     0.052500000000     0          
C487     C      0.836400000000     0.944500000000     0.034500000000     0          
C488     C      0.857500000000     0.915400000000     0.008100000000     0          
C489     C      0.896600000000     0.888000000000     0.015400000000     0          
H490     H      0.909090000000     0.888600000000     0.036890000000     0          
C491     C      0.917700000000     0.859700000000     0.991300000000     0          
H492     H      0.943790000000     0.840970000000     0.996670000000     0          
C493     C      0.898800000000     0.859700000000     0.958600000000     0          
C494     C      0.859600000000     0.886600000000     0.951100000000     0          
H495     H      0.845520000000     0.884400000000     0.930070000000     0          
C496     C      0.840700000000     0.917400000000     0.975400000000     0          
H497     H      0.817170000000     0.939050000000     0.969670000000     0          
C498     C      0.922100000000     0.830100000000     0.931850000000     0          
C499     C      0.734200000000     0.207100000000     0.365400000000     0          
H500     H      0.717650000000     0.178550000000     0.364340000000     0          
C501     C      0.783100000000     0.206900000000     0.370400000000     0          
H502     H      0.799220000000     0.178190000000     0.372370000000     0          
C503     C      0.973400000000     0.208100000000     0.378800000000     0          
C504     C      0.542800000000     0.016100000000     0.346800000000     0          
H505     H      0.571310000000     0.032740000000     0.346920000000     0          
C506     C      0.542700000000     0.966200000000     0.345400000000     0          
H507     H      0.571040000000     0.949510000000     0.347050000000     0          
C508     C      0.541300000000     0.772900000000     0.333700000000     0          
C509     C      0.582300000000     0.807300000000     0.333800000000     0          
H510     H      0.570390000000     0.839230000000     0.333780000000     0          
H511     H      0.601290000000     0.802310000000     0.353470000000     0          
H512     H      0.601460000000     0.802310000000     0.314230000000     0          
Zr513    Zr     0.937850000000     0.688130000000     0.853910000000     0          
O514     O      0.909830000000     0.662780000000     0.804940000000     0          
O515     O      0.949300000000     0.699300000000     0.766060000000     0          
O516     O      0.546380000000     0.296970000000     0.444340000000     0          
O517     O      0.589510000000     0.341350000000     0.401670000000     0          
O518     O      0.862170000000     0.709580000000     0.855190000000     0          
O519     O      0.958300000000     0.612160000000     0.852170000000     0          
C520     C      0.918400000000     0.673200000000     0.774650000000     0          
C521     C      0.887900000000     0.652100000000     0.748800000000     0          
C522     C      0.897200000000     0.663800000000     0.715000000000     0          
H523     H      0.921270000000     0.684900000000     0.709370000000     0          
C524     C      0.868900000000     0.642500000000     0.690300000000     0          
H525     H      0.876440000000     0.646600000000     0.667860000000     0          
C526     C      0.829800000000     0.615300000000     0.699200000000     0          
C527     C      0.823500000000     0.601900000000     0.732900000000     0          
H528     H      0.801560000000     0.578620000000     0.738680000000     0          
C529     C      0.850400000000     0.624200000000     0.757400000000     0          
H530     H      0.842810000000     0.619970000000     0.779830000000     0          
C531     C      0.802400000000     0.589000000000     0.675000000000     0          
C532     C      0.783300000000     0.574100000000     0.650900000000     0          
C533     C      0.753200000000     0.550500000000     0.627200000000     0          
C534     C      0.778900000000     0.530900000000     0.600800000000     0          
H535     H      0.810550000000     0.539240000000     0.597650000000     0          
C536     C      0.757000000000     0.498500000000     0.579200000000     0          
C537     C      0.707900000000     0.495700000000     0.579100000000     0          
C538     C      0.682200000000     0.515900000000     0.604500000000     0          
H539     H      0.649560000000     0.510980000000     0.605460000000     0          
C540     C      0.704000000000     0.543600000000     0.628800000000     0          
C541     C      0.780700000000     0.480600000000     0.547500000000     0          
H542     H      0.814510000000     0.483780000000     0.549550000000     0          
H543     H      0.769780000000     0.498780000000     0.528700000000     0          
H544     H      0.772750000000     0.447750000000     0.544210000000     0          
C545     C      0.677800000000     0.575900000000     0.651900000000     0          
H546     H      0.699940000000     0.591440000000     0.666530000000     0          
H547     H      0.655570000000     0.557880000000     0.664930000000     0          
H548     H      0.660990000000     0.599350000000     0.639040000000     0          
C549     C      0.684300000000     0.469300000000     0.552500000000     0          
C550     C      0.663600000000     0.444500000000     0.534500000000     0          
C551     C      0.642500000000     0.415400000000     0.508100000000     0          
C552     C      0.603400000000     0.388000000000     0.515400000000     0          
H553     H      0.590910000000     0.388600000000     0.536890000000     0          
C554     C      0.582300000000     0.359700000000     0.491300000000     0          
H555     H      0.556210000000     0.340970000000     0.496670000000     0          
C556     C      0.601200000000     0.359700000000     0.458600000000     0          
C557     C      0.640400000000     0.386600000000     0.451100000000     0          
H558     H      0.654480000000     0.384400000000     0.430070000000     0          
C559     C      0.659300000000     0.417400000000     0.475400000000     0          
H560     H      0.682830000000     0.439050000000     0.469670000000     0          
C561     C      0.577900000000     0.330100000000     0.431850000000     0          
C562     C      0.765800000000     0.707100000000     0.865400000000     0          
H563     H      0.782350000000     0.678550000000     0.864340000000     0          
C564     C      0.716900000000     0.706900000000     0.870400000000     0          
H565     H      0.700780000000     0.678190000000     0.872370000000     0          
C566     C      0.526600000000     0.708100000000     0.878800000000     0          
C567     C      0.539000000000     0.657000000000     0.876600000000     0          
H568     H      0.510410000000     0.638490000000     0.875130000000     0          
H569     H      0.556440000000     0.647830000000     0.896210000000     0          
H570     H      0.558090000000     0.651610000000     0.857080000000     0          
C571     C      0.957200000000     0.516100000000     0.846800000000     0          
H572     H      0.928690000000     0.532740000000     0.846920000000     0          
C573     C      0.957300000000     0.466200000000     0.845400000000     0          
H574     H      0.928960000000     0.449510000000     0.847050000000     0          
C575     C      0.958700000000     0.272900000000     0.833700000000     0          
C576     C      0.917700000000     0.307300000000     0.833800000000     0          
H577     H      0.929610000000     0.339230000000     0.833780000000     0          
H578     H      0.898710000000     0.302310000000     0.853470000000     0          
H579     H      0.898540000000     0.302310000000     0.814230000000     0          
Zr580    Zr     0.437850000000     0.188130000000     0.353910000000     0          
O581     O      0.409830000000     0.162780000000     0.304940000000     0          
O582     O      0.449300000000     0.199300000000     0.266060000000     0          
O583     O      0.046380000000     0.796970000000     0.944340000000     0          
O584     O      0.089510000000     0.841350000000     0.901670000000     0          
O585     O      0.362170000000     0.209580000000     0.355190000000     0          
O586     O      0.458300000000     0.112160000000     0.352170000000     0          
C587     C      0.418400000000     0.173200000000     0.274650000000     0          
C588     C      0.387900000000     0.152100000000     0.248800000000     0          
C589     C      0.397200000000     0.163800000000     0.215000000000     0          
H590     H      0.421270000000     0.184900000000     0.209370000000     0          
C591     C      0.368900000000     0.142500000000     0.190300000000     0          
H592     H      0.376440000000     0.146600000000     0.167860000000     0          
C593     C      0.329800000000     0.115300000000     0.199200000000     0          
C594     C      0.323500000000     0.101900000000     0.232900000000     0          
H595     H      0.301560000000     0.078620000000     0.238680000000     0          
C596     C      0.350400000000     0.124200000000     0.257400000000     0          
H597     H      0.342810000000     0.119970000000     0.279830000000     0          
C598     C      0.302400000000     0.089000000000     0.175000000000     0          
C599     C      0.283300000000     0.074100000000     0.150900000000     0          
C600     C      0.253200000000     0.050500000000     0.127200000000     0          
C601     C      0.278900000000     0.030900000000     0.100800000000     0          
H602     H      0.310550000000     0.039240000000     0.097650000000     0          
C603     C      0.257000000000     0.998500000000     0.079200000000     0          
C604     C      0.207900000000     0.995700000000     0.079100000000     0          
C605     C      0.182200000000     0.015900000000     0.104500000000     0          
H606     H      0.149560000000     0.010980000000     0.105460000000     0          
C607     C      0.204000000000     0.043600000000     0.128800000000     0          
C608     C      0.280700000000     0.980600000000     0.047500000000     0          
H609     H      0.314510000000     0.983780000000     0.049550000000     0          
H610     H      0.269780000000     0.998780000000     0.028700000000     0          
H611     H      0.272750000000     0.947750000000     0.044210000000     0          
C612     C      0.177800000000     0.075900000000     0.151900000000     0          
H613     H      0.199940000000     0.091440000000     0.166530000000     0          
H614     H      0.155570000000     0.057880000000     0.164930000000     0          
H615     H      0.160990000000     0.099350000000     0.139040000000     0          
C616     C      0.184300000000     0.969300000000     0.052500000000     0          
C617     C      0.163600000000     0.944500000000     0.034500000000     0          
C618     C      0.142500000000     0.915400000000     0.008100000000     0          
C619     C      0.103400000000     0.888000000000     0.015400000000     0          
H620     H      0.090910000000     0.888600000000     0.036890000000     0          
C621     C      0.082300000000     0.859700000000     0.991300000000     0          
H622     H      0.056210000000     0.840970000000     0.996670000000     0          
C623     C      0.101200000000     0.859700000000     0.958600000000     0          
C624     C      0.140400000000     0.886600000000     0.951100000000     0          
H625     H      0.154480000000     0.884400000000     0.930070000000     0          
C626     C      0.159300000000     0.917400000000     0.975400000000     0          
H627     H      0.182830000000     0.939050000000     0.969670000000     0          
C628     C      0.077900000000     0.830100000000     0.931850000000     0          
C629     C      0.265800000000     0.207100000000     0.365400000000     0          
H630     H      0.282350000000     0.178550000000     0.364340000000     0          
C631     C      0.216900000000     0.206900000000     0.370400000000     0          
H632     H      0.200780000000     0.178190000000     0.372370000000     0          
C633     C      0.026600000000     0.208100000000     0.378800000000     0          
C634     C      0.039000000000     0.157000000000     0.376600000000     0          
H635     H      0.010410000000     0.138490000000     0.375130000000     0          
H636     H      0.056440000000     0.147830000000     0.396210000000     0          
H637     H      0.058090000000     0.151610000000     0.357080000000     0          
C638     C      0.457200000000     0.016100000000     0.346800000000     0          
H639     H      0.428690000000     0.032740000000     0.346920000000     0          
C640     C      0.457300000000     0.966200000000     0.345400000000     0          
H641     H      0.428960000000     0.949510000000     0.347050000000     0          
C642     C      0.458700000000     0.772900000000     0.333700000000     0          
C643     C      0.417700000000     0.807300000000     0.333800000000     0          
H644     H      0.429610000000     0.839230000000     0.333780000000     0          
H645     H      0.398710000000     0.802310000000     0.353470000000     0          
H646     H      0.398540000000     0.802310000000     0.314230000000     0          
Zr647    Zr     0.062150000000     0.811870000000     0.853910000000     0          
O648     O      0.090170000000     0.837220000000     0.804940000000     0          
O649     O      0.050700000000     0.800700000000     0.766060000000     0          
O650     O      0.453620000000     0.203030000000     0.444340000000     0          
O651     O      0.410490000000     0.158650000000     0.401670000000     0          
O652     O      0.137830000000     0.790420000000     0.855190000000     0          
O653     O      0.041700000000     0.887840000000     0.852170000000     0          
C654     C      0.081600000000     0.826800000000     0.774650000000     0          
C655     C      0.112100000000     0.847900000000     0.748800000000     0          
C656     C      0.102800000000     0.836200000000     0.715000000000     0          
H657     H      0.078730000000     0.815100000000     0.709370000000     0          
C658     C      0.131100000000     0.857500000000     0.690300000000     0          
H659     H      0.123560000000     0.853400000000     0.667860000000     0          
C660     C      0.170200000000     0.884700000000     0.699200000000     0          
C661     C      0.176500000000     0.898100000000     0.732900000000     0          
H662     H      0.198440000000     0.921380000000     0.738680000000     0          
C663     C      0.149600000000     0.875800000000     0.757400000000     0          
H664     H      0.157190000000     0.880030000000     0.779830000000     0          
C665     C      0.197600000000     0.911000000000     0.675000000000     0          
C666     C      0.216700000000     0.925900000000     0.650900000000     0          
C667     C      0.246800000000     0.949500000000     0.627200000000     0          
C668     C      0.221100000000     0.969100000000     0.600800000000     0          
H669     H      0.189450000000     0.960760000000     0.597650000000     0          
C670     C      0.243000000000     0.001500000000     0.579200000000     0          
C671     C      0.292100000000     0.004300000000     0.579100000000     0          
C672     C      0.317800000000     0.984100000000     0.604500000000     0          
H673     H      0.350440000000     0.989020000000     0.605460000000     0          
C674     C      0.296000000000     0.956400000000     0.628800000000     0          
C675     C      0.219300000000     0.019400000000     0.547500000000     0          
H676     H      0.185490000000     0.016220000000     0.549550000000     0          
H677     H      0.230220000000     0.001220000000     0.528700000000     0          
H678     H      0.227250000000     0.052250000000     0.544210000000     0          
C679     C      0.322200000000     0.924100000000     0.651900000000     0          
H680     H      0.300060000000     0.908560000000     0.666530000000     0          
H681     H      0.344430000000     0.942120000000     0.664930000000     0          
H682     H      0.339010000000     0.900650000000     0.639040000000     0          
C683     C      0.315700000000     0.030700000000     0.552500000000     0          
C684     C      0.336400000000     0.055500000000     0.534500000000     0          
C685     C      0.357500000000     0.084600000000     0.508100000000     0          
C686     C      0.396600000000     0.112000000000     0.515400000000     0          
H687     H      0.409090000000     0.111400000000     0.536890000000     0          
C688     C      0.417700000000     0.140300000000     0.491300000000     0          
H689     H      0.443790000000     0.159030000000     0.496670000000     0          
C690     C      0.398800000000     0.140300000000     0.458600000000     0          
C691     C      0.359600000000     0.113400000000     0.451100000000     0          
H692     H      0.345520000000     0.115600000000     0.430070000000     0          
C693     C      0.340700000000     0.082600000000     0.475400000000     0          
H694     H      0.317170000000     0.060950000000     0.469670000000     0          
C695     C      0.422100000000     0.169900000000     0.431850000000     0          
C696     C      0.234200000000     0.792900000000     0.865400000000     0          
H697     H      0.217650000000     0.821450000000     0.864340000000     0          
C698     C      0.283100000000     0.793100000000     0.870400000000     0          
H699     H      0.299220000000     0.821810000000     0.872370000000     0          
C700     C      0.473400000000     0.791900000000     0.878800000000     0          
C701     C      0.461000000000     0.843000000000     0.876600000000     0          
H702     H      0.489590000000     0.861510000000     0.875130000000     0          
H703     H      0.443560000000     0.852170000000     0.896210000000     0          
H704     H      0.441910000000     0.848390000000     0.857080000000     0          
C705     C      0.042800000000     0.983900000000     0.846800000000     0          
H706     H      0.071310000000     0.967260000000     0.846920000000     0          
C707     C      0.042700000000     0.033800000000     0.845400000000     0          
H708     H      0.071040000000     0.050490000000     0.847050000000     0          
C709     C      0.041300000000     0.227100000000     0.833700000000     0          
C710     C      0.082300000000     0.192700000000     0.833800000000     0          
H711     H      0.070390000000     0.160770000000     0.833780000000     0          
H712     H      0.101290000000     0.197690000000     0.853470000000     0          
H713     H      0.101460000000     0.197690000000     0.814230000000     0          
Zr714    Zr     0.562150000000     0.311870000000     0.353910000000     0          
O715     O      0.590170000000     0.337220000000     0.304940000000     0          
O716     O      0.550700000000     0.300700000000     0.266060000000     0          
O717     O      0.953620000000     0.703030000000     0.944340000000     0          
O718     O      0.910490000000     0.658650000000     0.901670000000     0          
O719     O      0.637830000000     0.290420000000     0.355190000000     0          
O720     O      0.541700000000     0.387840000000     0.352170000000     0          
C721     C      0.581600000000     0.326800000000     0.274650000000     0          
C722     C      0.612100000000     0.347900000000     0.248800000000     0          
C723     C      0.602800000000     0.336200000000     0.215000000000     0          
H724     H      0.578730000000     0.315100000000     0.209370000000     0          
C725     C      0.631100000000     0.357500000000     0.190300000000     0          
H726     H      0.623560000000     0.353400000000     0.167860000000     0          
C727     C      0.670200000000     0.384700000000     0.199200000000     0          
C728     C      0.676500000000     0.398100000000     0.232900000000     0          
H729     H      0.698440000000     0.421380000000     0.238680000000     0          
C730     C      0.649600000000     0.375800000000     0.257400000000     0          
H731     H      0.657190000000     0.380030000000     0.279830000000     0          
C732     C      0.697600000000     0.411000000000     0.175000000000     0          
C733     C      0.716700000000     0.425900000000     0.150900000000     0          
C734     C      0.746800000000     0.449500000000     0.127200000000     0          
C735     C      0.721100000000     0.469100000000     0.100800000000     0          
H736     H      0.689450000000     0.460760000000     0.097650000000     0          
C737     C      0.743000000000     0.501500000000     0.079200000000     0          
C738     C      0.792100000000     0.504300000000     0.079100000000     0          
C739     C      0.817800000000     0.484100000000     0.104500000000     0          
H740     H      0.850440000000     0.489020000000     0.105460000000     0          
C741     C      0.796000000000     0.456400000000     0.128800000000     0          
C742     C      0.719300000000     0.519400000000     0.047500000000     0          
H743     H      0.685490000000     0.516220000000     0.049550000000     0          
H744     H      0.730220000000     0.501220000000     0.028700000000     0          
H745     H      0.727250000000     0.552250000000     0.044210000000     0          
C746     C      0.822200000000     0.424100000000     0.151900000000     0          
H747     H      0.800060000000     0.408560000000     0.166530000000     0          
H748     H      0.844430000000     0.442120000000     0.164930000000     0          
H749     H      0.839010000000     0.400650000000     0.139040000000     0          
C750     C      0.815700000000     0.530700000000     0.052500000000     0          
C751     C      0.836400000000     0.555500000000     0.034500000000     0          
C752     C      0.857500000000     0.584600000000     0.008100000000     0          
C753     C      0.896600000000     0.612000000000     0.015400000000     0          
H754     H      0.909090000000     0.611400000000     0.036890000000     0          
C755     C      0.917700000000     0.640300000000     0.991300000000     0          
H756     H      0.943790000000     0.659030000000     0.996670000000     0          
C757     C      0.898800000000     0.640300000000     0.958600000000     0          
C758     C      0.859600000000     0.613400000000     0.951100000000     0          
H759     H      0.845520000000     0.615600000000     0.930070000000     0          
C760     C      0.840700000000     0.582600000000     0.975400000000     0          
H761     H      0.817170000000     0.560950000000     0.969670000000     0          
C762     C      0.922100000000     0.669900000000     0.931850000000     0          
C763     C      0.734200000000     0.292900000000     0.365400000000     0          
H764     H      0.717650000000     0.321450000000     0.364340000000     0          
C765     C      0.783100000000     0.293100000000     0.370400000000     0          
H766     H      0.799220000000     0.321810000000     0.372370000000     0          
C767     C      0.973400000000     0.291900000000     0.378800000000     0          
C768     C      0.961000000000     0.343000000000     0.376600000000     0          
H769     H      0.989590000000     0.361510000000     0.375130000000     0          
H770     H      0.943560000000     0.352170000000     0.396210000000     0          
H771     H      0.941910000000     0.348390000000     0.357080000000     0          
C772     C      0.542800000000     0.483900000000     0.346800000000     0          
H773     H      0.571310000000     0.467260000000     0.346920000000     0          
C774     C      0.542700000000     0.533800000000     0.345400000000     0          
H775     H      0.571040000000     0.550490000000     0.347050000000     0          
C776     C      0.541300000000     0.727100000000     0.333700000000     0          
C777     C      0.582300000000     0.692700000000     0.333800000000     0          
H778     H      0.570390000000     0.660770000000     0.333780000000     0          
H779     H      0.601290000000     0.697690000000     0.353470000000     0          
H780     H      0.601460000000     0.697690000000     0.314230000000     0          
Zr781    Zr     0.062150000000     0.188130000000     0.146090000000     0          
O782     O      0.090170000000     0.162780000000     0.195060000000     0          
O783     O      0.050700000000     0.199300000000     0.233940000000     0          
O784     O      0.453620000000     0.796970000000     0.555660000000     0          
O785     O      0.410490000000     0.841350000000     0.598330000000     0          
O786     O      0.137830000000     0.209580000000     0.144810000000     0          
O787     O      0.041700000000     0.112160000000     0.147830000000     0          
C788     C      0.081600000000     0.173200000000     0.225350000000     0          
C789     C      0.112100000000     0.152100000000     0.251200000000     0          
C790     C      0.102800000000     0.163800000000     0.285000000000     0          
H791     H      0.078730000000     0.184900000000     0.290630000000     0          
C792     C      0.131100000000     0.142500000000     0.309700000000     0          
H793     H      0.123560000000     0.146600000000     0.332140000000     0          
C794     C      0.170200000000     0.115300000000     0.300800000000     0          
C795     C      0.176500000000     0.101900000000     0.267100000000     0          
H796     H      0.198440000000     0.078620000000     0.261320000000     0          
C797     C      0.149600000000     0.124200000000     0.242600000000     0          
H798     H      0.157190000000     0.119970000000     0.220170000000     0          
C799     C      0.197600000000     0.089000000000     0.325000000000     0          
C800     C      0.216700000000     0.074100000000     0.349100000000     0          
C801     C      0.246800000000     0.050500000000     0.372800000000     0          
C802     C      0.221100000000     0.030900000000     0.399200000000     0          
H803     H      0.189450000000     0.039240000000     0.402350000000     0          
C804     C      0.243000000000     0.998500000000     0.420800000000     0          
C805     C      0.292100000000     0.995700000000     0.420900000000     0          
C806     C      0.317800000000     0.015900000000     0.395500000000     0          
H807     H      0.350440000000     0.010980000000     0.394540000000     0          
C808     C      0.296000000000     0.043600000000     0.371200000000     0          
C809     C      0.219300000000     0.980600000000     0.452500000000     0          
H810     H      0.185490000000     0.983780000000     0.450450000000     0          
H811     H      0.230220000000     0.998780000000     0.471300000000     0          
H812     H      0.227250000000     0.947750000000     0.455790000000     0          
C813     C      0.322200000000     0.075900000000     0.348100000000     0          
H814     H      0.300060000000     0.091440000000     0.333470000000     0          
H815     H      0.344430000000     0.057880000000     0.335070000000     0          
H816     H      0.339010000000     0.099350000000     0.360960000000     0          
C817     C      0.315700000000     0.969300000000     0.447500000000     0          
C818     C      0.336400000000     0.944500000000     0.465500000000     0          
C819     C      0.357500000000     0.915400000000     0.491900000000     0          
C820     C      0.396600000000     0.888000000000     0.484600000000     0          
H821     H      0.409090000000     0.888600000000     0.463110000000     0          
C822     C      0.417700000000     0.859700000000     0.508700000000     0          
H823     H      0.443790000000     0.840970000000     0.503330000000     0          
C824     C      0.398800000000     0.859700000000     0.541400000000     0          
C825     C      0.359600000000     0.886600000000     0.548900000000     0          
H826     H      0.345520000000     0.884400000000     0.569930000000     0          
C827     C      0.340700000000     0.917400000000     0.524600000000     0          
H828     H      0.317170000000     0.939050000000     0.530330000000     0          
C829     C      0.422100000000     0.830100000000     0.568150000000     0          
C830     C      0.234200000000     0.207100000000     0.134600000000     0          
H831     H      0.217650000000     0.178550000000     0.135660000000     0          
C832     C      0.283100000000     0.206900000000     0.129600000000     0          
H833     H      0.299220000000     0.178190000000     0.127630000000     0          
C834     C      0.473400000000     0.208100000000     0.121200000000     0          
C835     C      0.461000000000     0.157000000000     0.123400000000     0          
H836     H      0.489590000000     0.138490000000     0.124870000000     0          
H837     H      0.443560000000     0.147830000000     0.103790000000     0          
H838     H      0.441910000000     0.151610000000     0.142920000000     0          
C839     C      0.042800000000     0.016100000000     0.153200000000     0          
H840     H      0.071310000000     0.032740000000     0.153080000000     0          
C841     C      0.042700000000     0.966200000000     0.154600000000     0          
H842     H      0.071040000000     0.949510000000     0.152950000000     0          
C843     C      0.041300000000     0.772900000000     0.166300000000     0          
C844     C      0.082300000000     0.807300000000     0.166200000000     0          
H845     H      0.070390000000     0.839230000000     0.166220000000     0          
H846     H      0.101290000000     0.802310000000     0.146530000000     0          
H847     H      0.101460000000     0.802310000000     0.185770000000     0          
Zr848    Zr     0.562150000000     0.688130000000     0.646090000000     0          
O849     O      0.590170000000     0.662780000000     0.695060000000     0          
O850     O      0.550700000000     0.699300000000     0.733940000000     0          
O851     O      0.953620000000     0.296970000000     0.055660000000     0          
O852     O      0.910490000000     0.341350000000     0.098330000000     0          
O853     O      0.637830000000     0.709580000000     0.644810000000     0          
O854     O      0.541700000000     0.612160000000     0.647830000000     0          
C855     C      0.581600000000     0.673200000000     0.725350000000     0          
C856     C      0.612100000000     0.652100000000     0.751200000000     0          
C857     C      0.602800000000     0.663800000000     0.785000000000     0          
H858     H      0.578730000000     0.684900000000     0.790630000000     0          
C859     C      0.631100000000     0.642500000000     0.809700000000     0          
H860     H      0.623560000000     0.646600000000     0.832140000000     0          
C861     C      0.670200000000     0.615300000000     0.800800000000     0          
C862     C      0.676500000000     0.601900000000     0.767100000000     0          
H863     H      0.698440000000     0.578620000000     0.761320000000     0          
C864     C      0.649600000000     0.624200000000     0.742600000000     0          
H865     H      0.657190000000     0.619970000000     0.720170000000     0          
C866     C      0.697600000000     0.589000000000     0.825000000000     0          
C867     C      0.716700000000     0.574100000000     0.849100000000     0          
C868     C      0.746800000000     0.550500000000     0.872800000000     0          
C869     C      0.721100000000     0.530900000000     0.899200000000     0          
H870     H      0.689450000000     0.539240000000     0.902350000000     0          
C871     C      0.743000000000     0.498500000000     0.920800000000     0          
C872     C      0.792100000000     0.495700000000     0.920900000000     0          
C873     C      0.817800000000     0.515900000000     0.895500000000     0          
H874     H      0.850440000000     0.510980000000     0.894540000000     0          
C875     C      0.796000000000     0.543600000000     0.871200000000     0          
C876     C      0.719300000000     0.480600000000     0.952500000000     0          
H877     H      0.685490000000     0.483780000000     0.950450000000     0          
H878     H      0.730220000000     0.498780000000     0.971300000000     0          
H879     H      0.727250000000     0.447750000000     0.955790000000     0          
C880     C      0.822200000000     0.575900000000     0.848100000000     0          
H881     H      0.800060000000     0.591440000000     0.833470000000     0          
H882     H      0.844430000000     0.557880000000     0.835070000000     0          
H883     H      0.839010000000     0.599350000000     0.860960000000     0          
C884     C      0.815700000000     0.469300000000     0.947500000000     0          
C885     C      0.836400000000     0.444500000000     0.965500000000     0          
C886     C      0.857500000000     0.415400000000     0.991900000000     0          
C887     C      0.896600000000     0.388000000000     0.984600000000     0          
H888     H      0.909090000000     0.388600000000     0.963110000000     0          
C889     C      0.917700000000     0.359700000000     0.008700000000     0          
H890     H      0.943790000000     0.340970000000     0.003330000000     0          
C891     C      0.898800000000     0.359700000000     0.041400000000     0          
C892     C      0.859600000000     0.386600000000     0.048900000000     0          
H893     H      0.845520000000     0.384400000000     0.069930000000     0          
C894     C      0.840700000000     0.417400000000     0.024600000000     0          
H895     H      0.817170000000     0.439050000000     0.030330000000     0          
C896     C      0.922100000000     0.330100000000     0.068150000000     0          
C897     C      0.734200000000     0.707100000000     0.634600000000     0          
H898     H      0.717650000000     0.678550000000     0.635660000000     0          
C899     C      0.783100000000     0.706900000000     0.629600000000     0          
H900     H      0.799220000000     0.678190000000     0.627630000000     0          
C901     C      0.973400000000     0.708100000000     0.621200000000     0          
C902     C      0.542800000000     0.516100000000     0.653200000000     0          
H903     H      0.571310000000     0.532740000000     0.653080000000     0          
C904     C      0.542700000000     0.466200000000     0.654600000000     0          
H905     H      0.571040000000     0.449510000000     0.652950000000     0          
C906     C      0.541300000000     0.272900000000     0.666300000000     0          
C907     C      0.582300000000     0.307300000000     0.666200000000     0          
H908     H      0.570390000000     0.339230000000     0.666220000000     0          
H909     H      0.601290000000     0.302310000000     0.646530000000     0          
H910     H      0.601460000000     0.302310000000     0.685770000000     0          
Zr911    Zr     0.937850000000     0.311870000000     0.146090000000     0          
O912     O      0.909830000000     0.337220000000     0.195060000000     0          
O913     O      0.949300000000     0.300700000000     0.233940000000     0          
O914     O      0.546380000000     0.703030000000     0.555660000000     0          
O915     O      0.589510000000     0.658650000000     0.598330000000     0          
O916     O      0.862170000000     0.290420000000     0.144810000000     0          
O917     O      0.958300000000     0.387840000000     0.147830000000     0          
C918     C      0.918400000000     0.326800000000     0.225350000000     0          
C919     C      0.887900000000     0.347900000000     0.251200000000     0          
C920     C      0.897200000000     0.336200000000     0.285000000000     0          
H921     H      0.921270000000     0.315100000000     0.290630000000     0          
C922     C      0.868900000000     0.357500000000     0.309700000000     0          
H923     H      0.876440000000     0.353400000000     0.332140000000     0          
C924     C      0.829800000000     0.384700000000     0.300800000000     0          
C925     C      0.823500000000     0.398100000000     0.267100000000     0          
H926     H      0.801560000000     0.421380000000     0.261320000000     0          
C927     C      0.850400000000     0.375800000000     0.242600000000     0          
H928     H      0.842810000000     0.380030000000     0.220170000000     0          
C929     C      0.802400000000     0.411000000000     0.325000000000     0          
C930     C      0.783300000000     0.425900000000     0.349100000000     0          
C931     C      0.753200000000     0.449500000000     0.372800000000     0          
C932     C      0.778900000000     0.469100000000     0.399200000000     0          
H933     H      0.810550000000     0.460760000000     0.402350000000     0          
C934     C      0.757000000000     0.501500000000     0.420800000000     0          
C935     C      0.707900000000     0.504300000000     0.420900000000     0          
C936     C      0.682200000000     0.484100000000     0.395500000000     0          
H937     H      0.649560000000     0.489020000000     0.394540000000     0          
C938     C      0.704000000000     0.456400000000     0.371200000000     0          
C939     C      0.780700000000     0.519400000000     0.452500000000     0          
H940     H      0.814510000000     0.516220000000     0.450450000000     0          
H941     H      0.769780000000     0.501220000000     0.471300000000     0          
H942     H      0.772750000000     0.552250000000     0.455790000000     0          
C943     C      0.677800000000     0.424100000000     0.348100000000     0          
H944     H      0.699940000000     0.408560000000     0.333470000000     0          
H945     H      0.655570000000     0.442120000000     0.335070000000     0          
H946     H      0.660990000000     0.400650000000     0.360960000000     0          
C947     C      0.684300000000     0.530700000000     0.447500000000     0          
C948     C      0.663600000000     0.555500000000     0.465500000000     0          
C949     C      0.642500000000     0.584600000000     0.491900000000     0          
C950     C      0.603400000000     0.612000000000     0.484600000000     0          
H951     H      0.590910000000     0.611400000000     0.463110000000     0          
C952     C      0.582300000000     0.640300000000     0.508700000000     0          
H953     H      0.556210000000     0.659030000000     0.503330000000     0          
C954     C      0.601200000000     0.640300000000     0.541400000000     0          
C955     C      0.640400000000     0.613400000000     0.548900000000     0          
H956     H      0.654480000000     0.615600000000     0.569930000000     0          
C957     C      0.659300000000     0.582600000000     0.524600000000     0          
H958     H      0.682830000000     0.560950000000     0.530330000000     0          
C959     C      0.577900000000     0.669900000000     0.568150000000     0          
C960     C      0.765800000000     0.292900000000     0.134600000000     0          
H961     H      0.782350000000     0.321450000000     0.135660000000     0          
C962     C      0.716900000000     0.293100000000     0.129600000000     0          
H963     H      0.700780000000     0.321810000000     0.127630000000     0          
C964     C      0.526600000000     0.291900000000     0.121200000000     0          
C965     C      0.539000000000     0.343000000000     0.123400000000     0          
H966     H      0.510410000000     0.361510000000     0.124870000000     0          
H967     H      0.556440000000     0.352170000000     0.103790000000     0          
H968     H      0.558090000000     0.348390000000     0.142920000000     0          
C969     C      0.957200000000     0.483900000000     0.153200000000     0          
H970     H      0.928690000000     0.467260000000     0.153080000000     0          
C971     C      0.957300000000     0.533800000000     0.154600000000     0          
H972     H      0.928960000000     0.550490000000     0.152950000000     0          
C973     C      0.958700000000     0.727100000000     0.166300000000     0          
C974     C      0.917700000000     0.692700000000     0.166200000000     0          
H975     H      0.929610000000     0.660770000000     0.166220000000     0          
H976     H      0.898710000000     0.697690000000     0.146530000000     0          
H977     H      0.898540000000     0.697690000000     0.185770000000     0          
Zr978    Zr     0.437850000000     0.811870000000     0.646090000000     0          
O979     O      0.409830000000     0.837220000000     0.695060000000     0          
O980     O      0.449300000000     0.800700000000     0.733940000000     0          
O981     O      0.046380000000     0.203030000000     0.055660000000     0          
O982     O      0.089510000000     0.158650000000     0.098330000000     0          
O983     O      0.362170000000     0.790420000000     0.644810000000     0          
O984     O      0.458300000000     0.887840000000     0.647830000000     0          
C985     C      0.418400000000     0.826800000000     0.725350000000     0          
C986     C      0.387900000000     0.847900000000     0.751200000000     0          
C987     C      0.397200000000     0.836200000000     0.785000000000     0          
H988     H      0.421270000000     0.815100000000     0.790630000000     0          
C989     C      0.368900000000     0.857500000000     0.809700000000     0          
H990     H      0.376440000000     0.853400000000     0.832140000000     0          
C991     C      0.329800000000     0.884700000000     0.800800000000     0          
C992     C      0.323500000000     0.898100000000     0.767100000000     0          
H993     H      0.301560000000     0.921380000000     0.761320000000     0          
C994     C      0.350400000000     0.875800000000     0.742600000000     0          
H995     H      0.342810000000     0.880030000000     0.720170000000     0          
C996     C      0.302400000000     0.911000000000     0.825000000000     0          
C997     C      0.283300000000     0.925900000000     0.849100000000     0          
C998     C      0.253200000000     0.949500000000     0.872800000000     0          
C999     C      0.278900000000     0.969100000000     0.899200000000     0          
H1000    H      0.310550000000     0.960760000000     0.902350000000     0          
C1001    C      0.257000000000     0.001500000000     0.920800000000     0          
C1002    C      0.207900000000     0.004300000000     0.920900000000     0          
C1003    C      0.182200000000     0.984100000000     0.895500000000     0          
H1004    H      0.149560000000     0.989020000000     0.894540000000     0          
C1005    C      0.204000000000     0.956400000000     0.871200000000     0          
C1006    C      0.280700000000     0.019400000000     0.952500000000     0          
H1007    H      0.314510000000     0.016220000000     0.950450000000     0          
H1008    H      0.269780000000     0.001220000000     0.971300000000     0          
H1009    H      0.272750000000     0.052250000000     0.955790000000     0          
C1010    C      0.177800000000     0.924100000000     0.848100000000     0          
H1011    H      0.199940000000     0.908560000000     0.833470000000     0          
H1012    H      0.155570000000     0.942120000000     0.835070000000     0          
H1013    H      0.160990000000     0.900650000000     0.860960000000     0          
C1014    C      0.184300000000     0.030700000000     0.947500000000     0          
C1015    C      0.163600000000     0.055500000000     0.965500000000     0          
C1016    C      0.142500000000     0.084600000000     0.991900000000     0          
C1017    C      0.103400000000     0.112000000000     0.984600000000     0          
H1018    H      0.090910000000     0.111400000000     0.963110000000     0          
C1019    C      0.082300000000     0.140300000000     0.008700000000     0          
H1020    H      0.056210000000     0.159030000000     0.003330000000     0          
C1021    C      0.101200000000     0.140300000000     0.041400000000     0          
C1022    C      0.140400000000     0.113400000000     0.048900000000     0          
H1023    H      0.154480000000     0.115600000000     0.069930000000     0          
C1024    C      0.159300000000     0.082600000000     0.024600000000     0          
H1025    H      0.182830000000     0.060950000000     0.030330000000     0          
C1026    C      0.077900000000     0.169900000000     0.068150000000     0          
C1027    C      0.265800000000     0.792900000000     0.634600000000     0          
H1028    H      0.282350000000     0.821450000000     0.635660000000     0          
C1029    C      0.216900000000     0.793100000000     0.629600000000     0          
H1030    H      0.200780000000     0.821810000000     0.627630000000     0          
C1031    C      0.026600000000     0.791900000000     0.621200000000     0          
C1032    C      0.457200000000     0.983900000000     0.653200000000     0          
H1033    H      0.428690000000     0.967260000000     0.653080000000     0          
C1034    C      0.457300000000     0.033800000000     0.654600000000     0          
H1035    H      0.428960000000     0.050490000000     0.652950000000     0          
C1036    C      0.458700000000     0.227100000000     0.666300000000     0          
C1037    C      0.417700000000     0.192700000000     0.666200000000     0          
H1038    H      0.429610000000     0.160770000000     0.666220000000     0          
H1039    H      0.398710000000     0.197690000000     0.646530000000     0          
H1040    H      0.398540000000     0.197690000000     0.685770000000     0          
Zr1041   Zr     0.000000000000     0.250000000000     0.207730000000     0          
Zr1042   Zr     0.000000000000     0.250000000000     0.084200000000     0          
Zr1043   Zr     0.500000000000     0.750000000000     0.707730000000     0          
Zr1044   Zr     0.500000000000     0.750000000000     0.584200000000     0          
Zr1045   Zr     0.000000000000     0.750000000000     0.792270000000     0          
Zr1046   Zr     0.000000000000     0.750000000000     0.915800000000     0          
Zr1047   Zr     0.500000000000     0.250000000000     0.292270000000     0          
Zr1048   Zr     0.500000000000     0.250000000000     0.415800000000     0          
O1049    O      0.064000000000     0.250000000000     0.178000000000     0          
O1050    O      0.059800000000     0.250000000000     0.116400000000     0          
C1051    C      0.157200000000     0.250000000000     0.141800000000     0          
C1052    C      0.209900000000     0.250000000000     0.137900000000     0          
C1053    C      0.308200000000     0.250000000000     0.127400000000     0          
C1054    C      0.358700000000     0.250000000000     0.121800000000     0          
C1055    C      0.400600000000     0.250000000000     0.119500000000     0          
C1056    C      0.450400000000     0.250000000000     0.118700000000     0          
O1057    O      0.564000000000     0.750000000000     0.678000000000     0          
O1058    O      0.559800000000     0.750000000000     0.616400000000     0          
C1059    C      0.657200000000     0.750000000000     0.641800000000     0          
C1060    C      0.709900000000     0.750000000000     0.637900000000     0          
C1061    C      0.808200000000     0.750000000000     0.627400000000     0          
C1062    C      0.858700000000     0.750000000000     0.621800000000     0          
C1063    C      0.900600000000     0.750000000000     0.619500000000     0          
C1064    C      0.950400000000     0.750000000000     0.618700000000     0          
O1065    O      0.936000000000     0.250000000000     0.178000000000     0          
O1066    O      0.940200000000     0.250000000000     0.116400000000     0          
C1067    C      0.842800000000     0.250000000000     0.141800000000     0          
C1068    C      0.790100000000     0.250000000000     0.137900000000     0          
C1069    C      0.691800000000     0.250000000000     0.127400000000     0          
C1070    C      0.641300000000     0.250000000000     0.121800000000     0          
C1071    C      0.599400000000     0.250000000000     0.119500000000     0          
C1072    C      0.549600000000     0.250000000000     0.118700000000     0          
O1073    O      0.436000000000     0.750000000000     0.678000000000     0          
O1074    O      0.440200000000     0.750000000000     0.616400000000     0          
C1075    C      0.342800000000     0.750000000000     0.641800000000     0          
C1076    C      0.290100000000     0.750000000000     0.637900000000     0          
C1077    C      0.191800000000     0.750000000000     0.627400000000     0          
C1078    C      0.141300000000     0.750000000000     0.621800000000     0          
C1079    C      0.099400000000     0.750000000000     0.619500000000     0          
C1080    C      0.049600000000     0.750000000000     0.618700000000     0          
O1081    O      0.936000000000     0.750000000000     0.822000000000     0          
O1082    O      0.940200000000     0.750000000000     0.883600000000     0          
C1083    C      0.842800000000     0.750000000000     0.858200000000     0          
C1084    C      0.790100000000     0.750000000000     0.862100000000     0          
C1085    C      0.691800000000     0.750000000000     0.872600000000     0          
C1086    C      0.641300000000     0.750000000000     0.878200000000     0          
C1087    C      0.599400000000     0.750000000000     0.880500000000     0          
C1088    C      0.549600000000     0.750000000000     0.881300000000     0          
O1089    O      0.436000000000     0.250000000000     0.322000000000     0          
O1090    O      0.440200000000     0.250000000000     0.383600000000     0          
C1091    C      0.342800000000     0.250000000000     0.358200000000     0          
C1092    C      0.290100000000     0.250000000000     0.362100000000     0          
C1093    C      0.191800000000     0.250000000000     0.372600000000     0          
C1094    C      0.141300000000     0.250000000000     0.378200000000     0          
C1095    C      0.099400000000     0.250000000000     0.380500000000     0          
C1096    C      0.049600000000     0.250000000000     0.381300000000     0          
O1097    O      0.064000000000     0.750000000000     0.822000000000     0          
O1098    O      0.059800000000     0.750000000000     0.883600000000     0          
C1099    C      0.157200000000     0.750000000000     0.858200000000     0          
C1100    C      0.209900000000     0.750000000000     0.862100000000     0          
C1101    C      0.308200000000     0.750000000000     0.872600000000     0          
C1102    C      0.358700000000     0.750000000000     0.878200000000     0          
C1103    C      0.400600000000     0.750000000000     0.880500000000     0          
C1104    C      0.450400000000     0.750000000000     0.881300000000     0          
O1105    O      0.564000000000     0.250000000000     0.322000000000     0          
O1106    O      0.559800000000     0.250000000000     0.383600000000     0          
C1107    C      0.657200000000     0.250000000000     0.358200000000     0          
C1108    C      0.709900000000     0.250000000000     0.362100000000     0          
C1109    C      0.808200000000     0.250000000000     0.372600000000     0          
C1110    C      0.858700000000     0.250000000000     0.378200000000     0          
C1111    C      0.900600000000     0.250000000000     0.380500000000     0          
C1112    C      0.950400000000     0.250000000000     0.381300000000     0          
O1113    O      0.000000000000     0.306400000000     0.174400000000     0          
O1114    O      0.000000000000     0.316200000000     0.113490000000     0          
C1115    C      0.000000000000     0.407400000000     0.148300000000     0          
C1116    C      0.000000000000     0.459900000000     0.152200000000     0          
C1117    C      0.000000000000     0.558000000000     0.158400000000     0          
C1118    C      0.000000000000     0.609000000000     0.157300000000     0          
C1119    C      0.000000000000     0.649200000000     0.166500000000     0          
C1120    C      0.000000000000     0.700800000000     0.166600000000     0          
O1121    O      0.500000000000     0.806400000000     0.674400000000     0          
O1122    O      0.500000000000     0.816200000000     0.613490000000     0          
C1123    C      0.500000000000     0.907400000000     0.648300000000     0          
C1124    C      0.500000000000     0.959900000000     0.652200000000     0          
C1125    C      0.500000000000     0.058000000000     0.658400000000     0          
C1126    C      0.500000000000     0.109000000000     0.657300000000     0          
C1127    C      0.500000000000     0.149200000000     0.666500000000     0          
C1128    C      0.500000000000     0.200800000000     0.666600000000     0          
O1129    O      0.000000000000     0.193600000000     0.174400000000     0          
O1130    O      0.000000000000     0.183800000000     0.113490000000     0          
C1131    C      0.000000000000     0.092600000000     0.148300000000     0          
C1132    C      0.000000000000     0.040100000000     0.152200000000     0          
C1133    C      0.000000000000     0.942000000000     0.158400000000     0          
C1134    C      0.000000000000     0.891000000000     0.157300000000     0          
C1135    C      0.000000000000     0.850800000000     0.166500000000     0          
C1136    C      0.000000000000     0.799200000000     0.166600000000     0          
O1137    O      0.500000000000     0.693600000000     0.674400000000     0          
O1138    O      0.500000000000     0.683800000000     0.613490000000     0          
C1139    C      0.500000000000     0.592600000000     0.648300000000     0          
C1140    C      0.500000000000     0.540100000000     0.652200000000     0          
C1141    C      0.500000000000     0.442000000000     0.658400000000     0          
C1142    C      0.500000000000     0.391000000000     0.657300000000     0          
C1143    C      0.500000000000     0.350800000000     0.666500000000     0          
C1144    C      0.500000000000     0.299200000000     0.666600000000     0          
O1145    O      0.000000000000     0.806400000000     0.825600000000     0          
O1146    O      0.000000000000     0.816200000000     0.886510000000     0          
C1147    C      0.000000000000     0.907400000000     0.851700000000     0          
C1148    C      0.000000000000     0.959900000000     0.847800000000     0          
C1149    C      0.000000000000     0.058000000000     0.841600000000     0          
C1150    C      0.000000000000     0.109000000000     0.842700000000     0          
C1151    C      0.000000000000     0.149200000000     0.833500000000     0          
C1152    C      0.000000000000     0.200800000000     0.833400000000     0          
O1153    O      0.500000000000     0.306400000000     0.325600000000     0          
O1154    O      0.500000000000     0.316200000000     0.386510000000     0          
C1155    C      0.500000000000     0.407400000000     0.351700000000     0          
C1156    C      0.500000000000     0.459900000000     0.347800000000     0          
C1157    C      0.500000000000     0.558000000000     0.341600000000     0          
C1158    C      0.500000000000     0.609000000000     0.342700000000     0          
C1159    C      0.500000000000     0.649200000000     0.333500000000     0          
C1160    C      0.500000000000     0.700800000000     0.333400000000     0          
O1161    O      0.000000000000     0.693600000000     0.825600000000     0          
O1162    O      0.000000000000     0.683800000000     0.886510000000     0          
C1163    C      0.000000000000     0.592600000000     0.851700000000     0          
C1164    C      0.000000000000     0.540100000000     0.847800000000     0          
C1165    C      0.000000000000     0.442000000000     0.841600000000     0          
C1166    C      0.000000000000     0.391000000000     0.842700000000     0          
C1167    C      0.000000000000     0.350800000000     0.833500000000     0          
C1168    C      0.000000000000     0.299200000000     0.833400000000     0          
O1169    O      0.500000000000     0.193600000000     0.325600000000     0          
O1170    O      0.500000000000     0.183800000000     0.386510000000     0          
C1171    C      0.500000000000     0.092600000000     0.351700000000     0          
C1172    C      0.500000000000     0.040100000000     0.347800000000     0          
C1173    C      0.500000000000     0.942000000000     0.341600000000     0          
C1174    C      0.500000000000     0.891000000000     0.342700000000     0          
C1175    C      0.500000000000     0.850800000000     0.333500000000     0          
C1176    C      0.500000000000     0.799200000000     0.333400000000     0          
H1177    H      0.547660000000     0.826340000000     0.876750000000     0          
H1178    H      0.452340000000     0.673660000000     0.876750000000     0          
H1179    H      0.452340000000     0.326340000000     0.123250000000     0          
H1180    H      0.547660000000     0.173660000000     0.123250000000     0          
H1181    H      0.952340000000     0.673660000000     0.623250000000     0          
H1182    H      0.047660000000     0.826340000000     0.623250000000     0          
H1183    H      0.952340000000     0.173660000000     0.376750000000     0          
H1184    H      0.047660000000     0.326340000000     0.376750000000     0          


