data_GEDXOF

_audit_creation_method RASPA-1.0
_audit_creation_date 2020-11-2
_audit_author_name 'Rocio Bueno-Perez'

_cell_length_a    39.8334
_cell_length_b    39.8334
_cell_length_c    39.8334
_cell_angle_alpha 90
_cell_angle_beta  90
_cell_angle_gamma 90
_cell_volume      63203.6

_symmetry_cell_setting          cubic
_symmetry_space_group_name_Hall 'P 1'
_symmetry_space_group_name_H-M  'P 1'
_symmetry_Int_Tables_number     1

_symmetry_equiv_pos_as_xyz 'x,y,z'

loop_
_atom_site_label
_atom_site_type_symbol
_atom_site_fract_x
_atom_site_fract_y
_atom_site_fract_z
_atom_site_charge
F1       F      0.591940000000     0.309730000000     0.892380000000     0          
O1       O      0.624470000000     0.214270000000     0.673550000000     0          
C3       C      0.615030000000     0.220730000000     0.763450000000     0          
H1       H      0.617000000000     0.198200000000     0.769300000000     0          
C4       C      0.609800000000     0.244560000000     0.787800000000     0          
H2       H      0.608100000000     0.238300000000     0.810200000000     0          
C9       C      0.592830000000     0.342790000000     0.883420000000     0          
Zr1      Zr     0.625000000000     0.187080000000     0.625000000000     0          
O2       O      0.592470000000     0.157530000000     0.592470000000     0          
O3       O      0.654510000000     0.154510000000     0.595490000000     0          
C1       C      0.622240000000     0.203670000000     0.703670000000     0          
C2       C      0.617470000000     0.230240000000     0.730240000000     0          
C5       C      0.606900000000     0.278510000000     0.778510000000     0          
C6       C      0.601400000000     0.303890000000     0.803890000000     0          
C7       C      0.596900000000     0.324920000000     0.824920000000     0          
C8       C      0.593700000000     0.350330000000     0.850330000000     0          
F1       F      0.690270000000     0.841940000000     0.142380000000     0          
O1       O      0.785730000000     0.874470000000     0.923550000000     0          
C3       C      0.779270000000     0.865030000000     0.013450000000     0          
H1       H      0.801800000000     0.867000000000     0.019300000000     0          
C4       C      0.755440000000     0.859800000000     0.037800000000     0          
H2       H      0.761700000000     0.858100000000     0.060200000000     0          
C9       C      0.657210000000     0.842830000000     0.133420000000     0          
Zr1      Zr     0.812920000000     0.875000000000     0.875000000000     0          
O2       O      0.842470000000     0.842470000000     0.842470000000     0          
O3       O      0.845490000000     0.904510000000     0.845490000000     0          
C1       C      0.796330000000     0.872240000000     0.953670000000     0          
C2       C      0.769760000000     0.867470000000     0.980240000000     0          
C5       C      0.721490000000     0.856900000000     0.028510000000     0          
C6       C      0.696110000000     0.851400000000     0.053890000000     0          
C7       C      0.675080000000     0.846900000000     0.074920000000     0          
C8       C      0.649670000000     0.843700000000     0.100330000000     0          
F1       F      0.158060000000     0.940270000000     0.392380000000     0          
O1       O      0.125530000000     0.035730000000     0.173550000000     0          
C3       C      0.134970000000     0.029270000000     0.263450000000     0          
H1       H      0.133000000000     0.051800000000     0.269300000000     0          
C4       C      0.140200000000     0.005440000000     0.287800000000     0          
H2       H      0.141900000000     0.011700000000     0.310200000000     0          
C9       C      0.157170000000     0.907210000000     0.383420000000     0          
Zr1      Zr     0.125000000000     0.062920000000     0.125000000000     0          
O2       O      0.157530000000     0.092470000000     0.092470000000     0          
O3       O      0.095490000000     0.095490000000     0.095490000000     0          
C1       C      0.127760000000     0.046330000000     0.203670000000     0          
C2       C      0.132530000000     0.019760000000     0.230240000000     0          
C5       C      0.143100000000     0.971490000000     0.278510000000     0          
C6       C      0.148600000000     0.946110000000     0.303890000000     0          
C7       C      0.153100000000     0.925080000000     0.324920000000     0          
C8       C      0.156300000000     0.899670000000     0.350330000000     0          
F1       F      0.059730000000     0.408060000000     0.642380000000     0          
O1       O      0.964270000000     0.375530000000     0.423550000000     0          
C3       C      0.970730000000     0.384970000000     0.513450000000     0          
H1       H      0.948200000000     0.383000000000     0.519300000000     0          
C4       C      0.994560000000     0.390200000000     0.537800000000     0          
H2       H      0.988300000000     0.391900000000     0.560200000000     0          
C9       C      0.092790000000     0.407170000000     0.633420000000     0          
Zr1      Zr     0.937080000000     0.375000000000     0.375000000000     0          
O2       O      0.907530000000     0.407530000000     0.342470000000     0          
O3       O      0.904510000000     0.345490000000     0.345490000000     0          
C1       C      0.953670000000     0.377760000000     0.453670000000     0          
C2       C      0.980240000000     0.382530000000     0.480240000000     0          
C5       C      0.028510000000     0.393100000000     0.528510000000     0          
C6       C      0.053890000000     0.398600000000     0.553890000000     0          
C7       C      0.074920000000     0.403100000000     0.574920000000     0          
C8       C      0.100330000000     0.406300000000     0.600330000000     0          
F1       F      0.591940000000     0.940270000000     0.357620000000     0          
O1       O      0.624470000000     0.035730000000     0.576450000000     0          
C3       C      0.615030000000     0.029270000000     0.486550000000     0          
H1       H      0.617000000000     0.051800000000     0.480700000000     0          
C4       C      0.609800000000     0.005440000000     0.462200000000     0          
H2       H      0.608100000000     0.011700000000     0.439800000000     0          
C9       C      0.592830000000     0.907210000000     0.366580000000     0          
Zr1      Zr     0.625000000000     0.062920000000     0.625000000000     0          
O2       O      0.592470000000     0.092470000000     0.657530000000     0          
O3       O      0.654510000000     0.095490000000     0.654510000000     0          
C1       C      0.622240000000     0.046330000000     0.546330000000     0          
C2       C      0.617470000000     0.019760000000     0.519760000000     0          
C5       C      0.606900000000     0.971490000000     0.471490000000     0          
C6       C      0.601400000000     0.946110000000     0.446110000000     0          
C7       C      0.596900000000     0.925080000000     0.425080000000     0          
C8       C      0.593700000000     0.899670000000     0.399670000000     0          
F1       F      0.059730000000     0.841940000000     0.607620000000     0          
O1       O      0.964270000000     0.874470000000     0.826450000000     0          
C3       C      0.970730000000     0.865030000000     0.736550000000     0          
H1       H      0.948200000000     0.867000000000     0.730700000000     0          
C4       C      0.994560000000     0.859800000000     0.712200000000     0          
H2       H      0.988300000000     0.858100000000     0.689800000000     0          
C9       C      0.092790000000     0.842830000000     0.616580000000     0          
Zr1      Zr     0.937080000000     0.875000000000     0.875000000000     0          
O2       O      0.907530000000     0.842470000000     0.907530000000     0          
O3       O      0.904510000000     0.904510000000     0.904510000000     0          
C1       C      0.953670000000     0.872240000000     0.796330000000     0          
C2       C      0.980240000000     0.867470000000     0.769760000000     0          
C5       C      0.028510000000     0.856900000000     0.721490000000     0          
C6       C      0.053890000000     0.851400000000     0.696110000000     0          
C7       C      0.074920000000     0.846900000000     0.675080000000     0          
C8       C      0.100330000000     0.843700000000     0.649670000000     0          
F1       F      0.158060000000     0.309730000000     0.857620000000     0          
O1       O      0.125530000000     0.214270000000     0.076450000000     0          
C3       C      0.134970000000     0.220730000000     0.986550000000     0          
H1       H      0.133000000000     0.198200000000     0.980700000000     0          
C4       C      0.140200000000     0.244560000000     0.962200000000     0          
H2       H      0.141900000000     0.238300000000     0.939800000000     0          
C9       C      0.157170000000     0.342790000000     0.866580000000     0          
Zr1      Zr     0.125000000000     0.187080000000     0.125000000000     0          
O2       O      0.157530000000     0.157530000000     0.157530000000     0          
O3       O      0.095490000000     0.154510000000     0.154510000000     0          
C1       C      0.127760000000     0.203670000000     0.046330000000     0          
C2       C      0.132530000000     0.230240000000     0.019760000000     0          
C5       C      0.143100000000     0.278510000000     0.971490000000     0          
C6       C      0.148600000000     0.303890000000     0.946110000000     0          
C7       C      0.153100000000     0.324920000000     0.925080000000     0          
C8       C      0.156300000000     0.350330000000     0.899670000000     0          
F1       F      0.690270000000     0.408060000000     0.107620000000     0          
O1       O      0.785730000000     0.375530000000     0.326450000000     0          
C3       C      0.779270000000     0.384970000000     0.236550000000     0          
H1       H      0.801800000000     0.383000000000     0.230700000000     0          
C4       C      0.755440000000     0.390200000000     0.212200000000     0          
H2       H      0.761700000000     0.391900000000     0.189800000000     0          
C9       C      0.657210000000     0.407170000000     0.116580000000     0          
Zr1      Zr     0.812920000000     0.375000000000     0.375000000000     0          
O2       O      0.842470000000     0.407530000000     0.407530000000     0          
O3       O      0.845490000000     0.345490000000     0.404510000000     0          
C1       C      0.796330000000     0.377760000000     0.296330000000     0          
C2       C      0.769760000000     0.382530000000     0.269760000000     0          
C5       C      0.721490000000     0.393100000000     0.221490000000     0          
C6       C      0.696110000000     0.398600000000     0.196110000000     0          
C7       C      0.675080000000     0.403100000000     0.175080000000     0          
C8       C      0.649670000000     0.406300000000     0.149670000000     0          
F1       F      0.892380000000     0.591940000000     0.309730000000     0          
O1       O      0.673550000000     0.624470000000     0.214270000000     0          
C3       C      0.763450000000     0.615030000000     0.220730000000     0          
H1       H      0.769300000000     0.617000000000     0.198200000000     0          
C4       C      0.787800000000     0.609800000000     0.244560000000     0          
H2       H      0.810200000000     0.608100000000     0.238300000000     0          
C9       C      0.883420000000     0.592830000000     0.342790000000     0          
Zr1      Zr     0.625000000000     0.625000000000     0.187080000000     0          
O2       O      0.592470000000     0.592470000000     0.157530000000     0          
O3       O      0.595490000000     0.654510000000     0.154510000000     0          
C1       C      0.703670000000     0.622240000000     0.203670000000     0          
C2       C      0.730240000000     0.617470000000     0.230240000000     0          
C5       C      0.778510000000     0.606900000000     0.278510000000     0          
C6       C      0.803890000000     0.601400000000     0.303890000000     0          
C7       C      0.824920000000     0.596900000000     0.324920000000     0          
C8       C      0.850330000000     0.593700000000     0.350330000000     0          
F1       F      0.408060000000     0.142380000000     0.559730000000     0          
O1       O      0.375530000000     0.923550000000     0.464270000000     0          
C3       C      0.384970000000     0.013450000000     0.470730000000     0          
H1       H      0.383000000000     0.019300000000     0.448200000000     0          
C4       C      0.390200000000     0.037800000000     0.494560000000     0          
H2       H      0.391900000000     0.060200000000     0.488300000000     0          
C9       C      0.407170000000     0.133420000000     0.592790000000     0          
Zr1      Zr     0.375000000000     0.875000000000     0.437080000000     0          
O2       O      0.407530000000     0.842470000000     0.407530000000     0          
O3       O      0.345490000000     0.845490000000     0.404510000000     0          
C1       C      0.377760000000     0.953670000000     0.453670000000     0          
C2       C      0.382530000000     0.980240000000     0.480240000000     0          
C5       C      0.393100000000     0.028510000000     0.528510000000     0          
C6       C      0.398600000000     0.053890000000     0.553890000000     0          
C7       C      0.403100000000     0.074920000000     0.574920000000     0          
C8       C      0.406300000000     0.100330000000     0.600330000000     0          
F1       F      0.857620000000     0.658060000000     0.809730000000     0          
O1       O      0.076450000000     0.625530000000     0.714270000000     0          
C3       C      0.986550000000     0.634970000000     0.720730000000     0          
H1       H      0.980700000000     0.633000000000     0.698200000000     0          
C4       C      0.962200000000     0.640200000000     0.744560000000     0          
H2       H      0.939800000000     0.641900000000     0.738300000000     0          
C9       C      0.866580000000     0.657170000000     0.842790000000     0          
Zr1      Zr     0.125000000000     0.625000000000     0.687080000000     0          
O2       O      0.157530000000     0.657530000000     0.657530000000     0          
O3       O      0.154510000000     0.595490000000     0.654510000000     0          
C1       C      0.046330000000     0.627760000000     0.703670000000     0          
C2       C      0.019760000000     0.632530000000     0.730240000000     0          
C5       C      0.971490000000     0.643100000000     0.778510000000     0          
C6       C      0.946110000000     0.648600000000     0.803890000000     0          
C7       C      0.925080000000     0.653100000000     0.824920000000     0          
C8       C      0.899670000000     0.656300000000     0.850330000000     0          
F1       F      0.341940000000     0.107620000000     0.059730000000     0          
O1       O      0.374470000000     0.326450000000     0.964270000000     0          
C3       C      0.365030000000     0.236550000000     0.970730000000     0          
H1       H      0.367000000000     0.230700000000     0.948200000000     0          
C4       C      0.359800000000     0.212200000000     0.994560000000     0          
H2       H      0.358100000000     0.189800000000     0.988300000000     0          
C9       C      0.342830000000     0.116580000000     0.092790000000     0          
Zr1      Zr     0.375000000000     0.375000000000     0.937080000000     0          
O2       O      0.342470000000     0.407530000000     0.907530000000     0          
O3       O      0.404510000000     0.404510000000     0.904510000000     0          
C1       C      0.372240000000     0.296330000000     0.953670000000     0          
C2       C      0.367470000000     0.269760000000     0.980240000000     0          
C5       C      0.356900000000     0.221490000000     0.028510000000     0          
C6       C      0.351400000000     0.196110000000     0.053890000000     0          
C7       C      0.346900000000     0.175080000000     0.074920000000     0          
C8       C      0.343700000000     0.149670000000     0.100330000000     0          
F1       F      0.892380000000     0.658060000000     0.940270000000     0          
O1       O      0.673550000000     0.625530000000     0.035730000000     0          
C3       C      0.763450000000     0.634970000000     0.029270000000     0          
H1       H      0.769300000000     0.633000000000     0.051800000000     0          
C4       C      0.787800000000     0.640200000000     0.005440000000     0          
H2       H      0.810200000000     0.641900000000     0.011700000000     0          
C9       C      0.883420000000     0.657170000000     0.907210000000     0          
Zr1      Zr     0.625000000000     0.625000000000     0.062920000000     0          
O2       O      0.592470000000     0.657530000000     0.092470000000     0          
O3       O      0.595490000000     0.595490000000     0.095490000000     0          
C1       C      0.703670000000     0.627760000000     0.046330000000     0          
C2       C      0.730240000000     0.632530000000     0.019760000000     0          
C5       C      0.778510000000     0.643100000000     0.971490000000     0          
C6       C      0.803890000000     0.648600000000     0.946110000000     0          
C7       C      0.824920000000     0.653100000000     0.925080000000     0          
C8       C      0.850330000000     0.656300000000     0.899670000000     0          
F1       F      0.341940000000     0.142380000000     0.190270000000     0          
O1       O      0.374470000000     0.923550000000     0.285730000000     0          
C3       C      0.365030000000     0.013450000000     0.279270000000     0          
H1       H      0.367000000000     0.019300000000     0.301800000000     0          
C4       C      0.359800000000     0.037800000000     0.255440000000     0          
H2       H      0.358100000000     0.060200000000     0.261700000000     0          
C9       C      0.342830000000     0.133420000000     0.157210000000     0          
Zr1      Zr     0.375000000000     0.875000000000     0.312920000000     0          
O2       O      0.342470000000     0.842470000000     0.342470000000     0          
O3       O      0.404510000000     0.845490000000     0.345490000000     0          
C1       C      0.372240000000     0.953670000000     0.296330000000     0          
C2       C      0.367470000000     0.980240000000     0.269760000000     0          
C5       C      0.356900000000     0.028510000000     0.221490000000     0          
C6       C      0.351400000000     0.053890000000     0.196110000000     0          
C7       C      0.346900000000     0.074920000000     0.175080000000     0          
C8       C      0.343700000000     0.100330000000     0.149670000000     0          
F1       F      0.857620000000     0.591940000000     0.440270000000     0          
O1       O      0.076450000000     0.624470000000     0.535730000000     0          
C3       C      0.986550000000     0.615030000000     0.529270000000     0          
H1       H      0.980700000000     0.617000000000     0.551800000000     0          
C4       C      0.962200000000     0.609800000000     0.505440000000     0          
H2       H      0.939800000000     0.608100000000     0.511700000000     0          
C9       C      0.866580000000     0.592830000000     0.407210000000     0          
Zr1      Zr     0.125000000000     0.625000000000     0.562920000000     0          
O2       O      0.157530000000     0.592470000000     0.592470000000     0          
O3       O      0.154510000000     0.654510000000     0.595490000000     0          
C1       C      0.046330000000     0.622240000000     0.546330000000     0          
C2       C      0.019760000000     0.617470000000     0.519760000000     0          
C5       C      0.971490000000     0.606900000000     0.471490000000     0          
C6       C      0.946110000000     0.601400000000     0.446110000000     0          
C7       C      0.925080000000     0.596900000000     0.425080000000     0          
C8       C      0.899670000000     0.593700000000     0.399670000000     0          
F1       F      0.408060000000     0.107620000000     0.690270000000     0          
O1       O      0.375530000000     0.326450000000     0.785730000000     0          
C3       C      0.384970000000     0.236550000000     0.779270000000     0          
H1       H      0.383000000000     0.230700000000     0.801800000000     0          
C4       C      0.390200000000     0.212200000000     0.755440000000     0          
H2       H      0.391900000000     0.189800000000     0.761700000000     0          
C9       C      0.407170000000     0.116580000000     0.657210000000     0          
Zr1      Zr     0.375000000000     0.375000000000     0.812920000000     0          
O2       O      0.407530000000     0.407530000000     0.842470000000     0          
O3       O      0.345490000000     0.404510000000     0.845490000000     0          
C1       C      0.377760000000     0.296330000000     0.796330000000     0          
C2       C      0.382530000000     0.269760000000     0.769760000000     0          
C5       C      0.393100000000     0.221490000000     0.721490000000     0          
C6       C      0.398600000000     0.196110000000     0.696110000000     0          
C7       C      0.403100000000     0.175080000000     0.675080000000     0          
C8       C      0.406300000000     0.149670000000     0.649670000000     0          
F1       F      0.309730000000     0.892380000000     0.591940000000     0          
O1       O      0.214270000000     0.673550000000     0.624470000000     0          
C3       C      0.220730000000     0.763450000000     0.615030000000     0          
H1       H      0.198200000000     0.769300000000     0.617000000000     0          
C4       C      0.244560000000     0.787800000000     0.609800000000     0          
H2       H      0.238300000000     0.810200000000     0.608100000000     0          
C9       C      0.342790000000     0.883420000000     0.592830000000     0          
Zr1      Zr     0.187080000000     0.625000000000     0.625000000000     0          
C1       C      0.203670000000     0.703670000000     0.622240000000     0          
C2       C      0.230240000000     0.730240000000     0.617470000000     0          
C5       C      0.278510000000     0.778510000000     0.606900000000     0          
C6       C      0.303890000000     0.803890000000     0.601400000000     0          
C7       C      0.324920000000     0.824920000000     0.596900000000     0          
C8       C      0.350330000000     0.850330000000     0.593700000000     0          
F1       F      0.809730000000     0.857620000000     0.658060000000     0          
O1       O      0.714270000000     0.076450000000     0.625530000000     0          
C3       C      0.720730000000     0.986550000000     0.634970000000     0          
H1       H      0.698200000000     0.980700000000     0.633000000000     0          
C4       C      0.744560000000     0.962200000000     0.640200000000     0          
H2       H      0.738300000000     0.939800000000     0.641900000000     0          
C9       C      0.842790000000     0.866580000000     0.657170000000     0          
Zr1      Zr     0.687080000000     0.125000000000     0.625000000000     0          
O2       O      0.657530000000     0.157530000000     0.657530000000     0          
C1       C      0.703670000000     0.046330000000     0.627760000000     0          
C2       C      0.730240000000     0.019760000000     0.632530000000     0          
C5       C      0.778510000000     0.971490000000     0.643100000000     0          
C6       C      0.803890000000     0.946110000000     0.648600000000     0          
C7       C      0.824920000000     0.925080000000     0.653100000000     0          
C8       C      0.850330000000     0.899670000000     0.656300000000     0          
F1       F      0.142380000000     0.059730000000     0.908060000000     0          
O1       O      0.923550000000     0.964270000000     0.875530000000     0          
C3       C      0.013450000000     0.970730000000     0.884970000000     0          
H1       H      0.019300000000     0.948200000000     0.883000000000     0          
C4       C      0.037800000000     0.994560000000     0.890200000000     0          
H2       H      0.060200000000     0.988300000000     0.891900000000     0          
C9       C      0.133420000000     0.092790000000     0.907170000000     0          
Zr1      Zr     0.875000000000     0.937080000000     0.875000000000     0          
O2       O      0.842470000000     0.907530000000     0.907530000000     0          
C1       C      0.953670000000     0.953670000000     0.877760000000     0          
C2       C      0.980240000000     0.980240000000     0.882530000000     0          
C5       C      0.028510000000     0.028510000000     0.893100000000     0          
C6       C      0.053890000000     0.053890000000     0.898600000000     0          
C7       C      0.074920000000     0.074920000000     0.903100000000     0          
C8       C      0.100330000000     0.100330000000     0.906300000000     0          
F1       F      0.940270000000     0.392380000000     0.158060000000     0          
O1       O      0.035730000000     0.173550000000     0.125530000000     0          
C3       C      0.029270000000     0.263450000000     0.134970000000     0          
H1       H      0.051800000000     0.269300000000     0.133000000000     0          
C4       C      0.005440000000     0.287800000000     0.140200000000     0          
H2       H      0.011700000000     0.310200000000     0.141900000000     0          
C9       C      0.907210000000     0.383420000000     0.157170000000     0          
Zr1      Zr     0.062920000000     0.125000000000     0.125000000000     0          
O2       O      0.092470000000     0.092470000000     0.157530000000     0          
C1       C      0.046330000000     0.203670000000     0.127760000000     0          
C2       C      0.019760000000     0.230240000000     0.132530000000     0          
C5       C      0.971490000000     0.278510000000     0.143100000000     0          
C6       C      0.946110000000     0.303890000000     0.148600000000     0          
C7       C      0.925080000000     0.324920000000     0.153100000000     0          
C8       C      0.899670000000     0.350330000000     0.156300000000     0          
F1       F      0.107620000000     0.190270000000     0.908060000000     0          
O1       O      0.326450000000     0.285730000000     0.875530000000     0          
C3       C      0.236550000000     0.279270000000     0.884970000000     0          
H1       H      0.230700000000     0.301800000000     0.883000000000     0          
C4       C      0.212200000000     0.255440000000     0.890200000000     0          
H2       H      0.189800000000     0.261700000000     0.891900000000     0          
C9       C      0.116580000000     0.157210000000     0.907170000000     0          
Zr1      Zr     0.375000000000     0.312920000000     0.875000000000     0          
O2       O      0.407530000000     0.342470000000     0.907530000000     0          
O3       O      0.404510000000     0.345490000000     0.845490000000     0          
C1       C      0.296330000000     0.296330000000     0.877760000000     0          
C2       C      0.269760000000     0.269760000000     0.882530000000     0          
C5       C      0.221490000000     0.221490000000     0.893100000000     0          
C6       C      0.196110000000     0.196110000000     0.898600000000     0          
C7       C      0.175080000000     0.175080000000     0.903100000000     0          
C8       C      0.149670000000     0.149670000000     0.906300000000     0          
F1       F      0.940270000000     0.357620000000     0.591940000000     0          
O1       O      0.035730000000     0.576450000000     0.624470000000     0          
C3       C      0.029270000000     0.486550000000     0.615030000000     0          
H1       H      0.051800000000     0.480700000000     0.617000000000     0          
C4       C      0.005440000000     0.462200000000     0.609800000000     0          
H2       H      0.011700000000     0.439800000000     0.608100000000     0          
C9       C      0.907210000000     0.366580000000     0.592830000000     0          
Zr1      Zr     0.062920000000     0.625000000000     0.625000000000     0          
O2       O      0.092470000000     0.657530000000     0.592470000000     0          
O3       O      0.095490000000     0.654510000000     0.654510000000     0          
C1       C      0.046330000000     0.546330000000     0.622240000000     0          
C2       C      0.019760000000     0.519760000000     0.617470000000     0          
C5       C      0.971490000000     0.471490000000     0.606900000000     0          
C6       C      0.946110000000     0.446110000000     0.601400000000     0          
C7       C      0.925080000000     0.425080000000     0.596900000000     0          
C8       C      0.899670000000     0.399670000000     0.593700000000     0          
F1       F      0.142380000000     0.690270000000     0.841940000000     0          
O1       O      0.923550000000     0.785730000000     0.874470000000     0          
C3       C      0.013450000000     0.779270000000     0.865030000000     0          
H1       H      0.019300000000     0.801800000000     0.867000000000     0          
C4       C      0.037800000000     0.755440000000     0.859800000000     0          
H2       H      0.060200000000     0.761700000000     0.858100000000     0          
C9       C      0.133420000000     0.657210000000     0.842830000000     0          
Zr1      Zr     0.875000000000     0.812920000000     0.875000000000     0          
O3       O      0.845490000000     0.845490000000     0.904510000000     0          
C1       C      0.953670000000     0.796330000000     0.872240000000     0          
C2       C      0.980240000000     0.769760000000     0.867470000000     0          
C5       C      0.028510000000     0.721490000000     0.856900000000     0          
C6       C      0.053890000000     0.696110000000     0.851400000000     0          
C7       C      0.074920000000     0.675080000000     0.846900000000     0          
C8       C      0.100330000000     0.649670000000     0.843700000000     0          
F1       F      0.607620000000     0.559730000000     0.341940000000     0          
O1       O      0.826450000000     0.464270000000     0.374470000000     0          
C3       C      0.736550000000     0.470730000000     0.365030000000     0          
H1       H      0.730700000000     0.448200000000     0.367000000000     0          
C4       C      0.712200000000     0.494560000000     0.359800000000     0          
H2       H      0.689800000000     0.488300000000     0.358100000000     0          
C9       C      0.616580000000     0.592790000000     0.342830000000     0          
Zr1      Zr     0.875000000000     0.437080000000     0.375000000000     0          
O3       O      0.904510000000     0.404510000000     0.404510000000     0          
C1       C      0.796330000000     0.453670000000     0.372240000000     0          
C2       C      0.769760000000     0.480240000000     0.367470000000     0          
C5       C      0.721490000000     0.528510000000     0.356900000000     0          
C6       C      0.696110000000     0.553890000000     0.351400000000     0          
C7       C      0.675080000000     0.574920000000     0.346900000000     0          
C8       C      0.649670000000     0.600330000000     0.343700000000     0          
F1       F      0.408060000000     0.690270000000     0.107620000000     0          
O1       O      0.375530000000     0.785730000000     0.326450000000     0          
C3       C      0.384970000000     0.779270000000     0.236550000000     0          
H1       H      0.383000000000     0.801800000000     0.230700000000     0          
C4       C      0.390200000000     0.755440000000     0.212200000000     0          
H2       H      0.391900000000     0.761700000000     0.189800000000     0          
C9       C      0.407170000000     0.657210000000     0.116580000000     0          
Zr1      Zr     0.375000000000     0.812920000000     0.375000000000     0          
C1       C      0.377760000000     0.796330000000     0.296330000000     0          
C2       C      0.382530000000     0.769760000000     0.269760000000     0          
C5       C      0.393100000000     0.721490000000     0.221490000000     0          
C6       C      0.398600000000     0.696110000000     0.196110000000     0          
C7       C      0.403100000000     0.675080000000     0.175080000000     0          
C8       C      0.406300000000     0.649670000000     0.149670000000     0          
F1       F      0.309730000000     0.158060000000     0.857620000000     0          
O1       O      0.214270000000     0.125530000000     0.076450000000     0          
C3       C      0.220730000000     0.134970000000     0.986550000000     0          
H1       H      0.198200000000     0.133000000000     0.980700000000     0          
C4       C      0.244560000000     0.140200000000     0.962200000000     0          
H2       H      0.238300000000     0.141900000000     0.939800000000     0          
C9       C      0.342790000000     0.157170000000     0.866580000000     0          
Zr1      Zr     0.187080000000     0.125000000000     0.125000000000     0          
O3       O      0.154510000000     0.095490000000     0.154510000000     0          
C1       C      0.203670000000     0.127760000000     0.046330000000     0          
C2       C      0.230240000000     0.132530000000     0.019760000000     0          
C5       C      0.278510000000     0.143100000000     0.971490000000     0          
C6       C      0.303890000000     0.148600000000     0.946110000000     0          
C7       C      0.324920000000     0.153100000000     0.925080000000     0          
C8       C      0.350330000000     0.156300000000     0.899670000000     0          
F1       F      0.841940000000     0.059730000000     0.607620000000     0          
O1       O      0.874470000000     0.964270000000     0.826450000000     0          
C3       C      0.865030000000     0.970730000000     0.736550000000     0          
H1       H      0.867000000000     0.948200000000     0.730700000000     0          
C4       C      0.859800000000     0.994560000000     0.712200000000     0          
H2       H      0.858100000000     0.988300000000     0.689800000000     0          
C9       C      0.842830000000     0.092790000000     0.616580000000     0          
C1       C      0.872240000000     0.953670000000     0.796330000000     0          
C2       C      0.867470000000     0.980240000000     0.769760000000     0          
C5       C      0.856900000000     0.028510000000     0.721490000000     0          
C6       C      0.851400000000     0.053890000000     0.696110000000     0          
C7       C      0.846900000000     0.074920000000     0.675080000000     0          
C8       C      0.843700000000     0.100330000000     0.649670000000     0          
F1       F      0.940270000000     0.591940000000     0.357620000000     0          
O1       O      0.035730000000     0.624470000000     0.576450000000     0          
C3       C      0.029270000000     0.615030000000     0.486550000000     0          
H1       H      0.051800000000     0.617000000000     0.480700000000     0          
C4       C      0.005440000000     0.609800000000     0.462200000000     0          
H2       H      0.011700000000     0.608100000000     0.439800000000     0          
C9       C      0.907210000000     0.592830000000     0.366580000000     0          
O2       O      0.092470000000     0.592470000000     0.657530000000     0          
F1       F      0.408060000000     0.059730000000     0.642380000000     0          
O1       O      0.375530000000     0.964270000000     0.423550000000     0          
C3       C      0.384970000000     0.970730000000     0.513450000000     0          
H1       H      0.383000000000     0.948200000000     0.519300000000     0          
C4       C      0.390200000000     0.994560000000     0.537800000000     0          
H2       H      0.391900000000     0.988300000000     0.560200000000     0          
C9       C      0.407170000000     0.092790000000     0.633420000000     0          
Zr1      Zr     0.375000000000     0.937080000000     0.375000000000     0          
O2       O      0.407530000000     0.907530000000     0.342470000000     0          
O3       O      0.345490000000     0.904510000000     0.345490000000     0          
F1       F      0.940270000000     0.158060000000     0.392380000000     0          
O1       O      0.035730000000     0.125530000000     0.173550000000     0          
C3       C      0.029270000000     0.134970000000     0.263450000000     0          
H1       H      0.051800000000     0.133000000000     0.269300000000     0          
C4       C      0.005440000000     0.140200000000     0.287800000000     0          
H2       H      0.011700000000     0.141900000000     0.310200000000     0          
C9       C      0.907210000000     0.157170000000     0.383420000000     0          
O2       O      0.092470000000     0.157530000000     0.092470000000     0          
C1       C      0.046330000000     0.127760000000     0.203670000000     0          
C2       C      0.019760000000     0.132530000000     0.230240000000     0          
C5       C      0.971490000000     0.143100000000     0.278510000000     0          
C6       C      0.946110000000     0.148600000000     0.303890000000     0          
C7       C      0.925080000000     0.153100000000     0.324920000000     0          
C8       C      0.899670000000     0.156300000000     0.350330000000     0          
F1       F      0.841940000000     0.690270000000     0.142380000000     0          
O1       O      0.874470000000     0.785730000000     0.923550000000     0          
C3       C      0.865030000000     0.779270000000     0.013450000000     0          
H1       H      0.867000000000     0.801800000000     0.019300000000     0          
C4       C      0.859800000000     0.755440000000     0.037800000000     0          
H2       H      0.858100000000     0.761700000000     0.060200000000     0          
C9       C      0.842830000000     0.657210000000     0.133420000000     0          
O3       O      0.904510000000     0.845490000000     0.845490000000     0          
C1       C      0.872240000000     0.796330000000     0.953670000000     0          
C2       C      0.867470000000     0.769760000000     0.980240000000     0          
C5       C      0.856900000000     0.721490000000     0.028510000000     0          
C6       C      0.851400000000     0.696110000000     0.053890000000     0          
C7       C      0.846900000000     0.675080000000     0.074920000000     0          
C8       C      0.843700000000     0.649670000000     0.100330000000     0          
F1       F      0.309730000000     0.591940000000     0.892380000000     0          
O1       O      0.214270000000     0.624470000000     0.673550000000     0          
C3       C      0.220730000000     0.615030000000     0.763450000000     0          
H1       H      0.198200000000     0.617000000000     0.769300000000     0          
C4       C      0.244560000000     0.609800000000     0.787800000000     0          
H2       H      0.238300000000     0.608100000000     0.810200000000     0          
C9       C      0.342790000000     0.592830000000     0.883420000000     0          
C1       C      0.203670000000     0.622240000000     0.703670000000     0          
C2       C      0.230240000000     0.617470000000     0.730240000000     0          
C5       C      0.278510000000     0.606900000000     0.778510000000     0          
C6       C      0.303890000000     0.601400000000     0.803890000000     0          
C7       C      0.324920000000     0.596900000000     0.824920000000     0          
C8       C      0.350330000000     0.593700000000     0.850330000000     0          
F1       F      0.107620000000     0.408060000000     0.690270000000     0          
O1       O      0.326450000000     0.375530000000     0.785730000000     0          
C3       C      0.236550000000     0.384970000000     0.779270000000     0          
H1       H      0.230700000000     0.383000000000     0.801800000000     0          
C4       C      0.212200000000     0.390200000000     0.755440000000     0          
H2       H      0.189800000000     0.391900000000     0.761700000000     0          
C9       C      0.116580000000     0.407170000000     0.657210000000     0          
C1       C      0.296330000000     0.377760000000     0.796330000000     0          
C2       C      0.269760000000     0.382530000000     0.769760000000     0          
C5       C      0.221490000000     0.393100000000     0.721490000000     0          
C6       C      0.196110000000     0.398600000000     0.696110000000     0          
C7       C      0.175080000000     0.403100000000     0.675080000000     0          
C8       C      0.149670000000     0.406300000000     0.649670000000     0          
F1       F      0.591940000000     0.857620000000     0.440270000000     0          
O1       O      0.624470000000     0.076450000000     0.535730000000     0          
C3       C      0.615030000000     0.986550000000     0.529270000000     0          
H1       H      0.617000000000     0.980700000000     0.551800000000     0          
C4       C      0.609800000000     0.962200000000     0.505440000000     0          
H2       H      0.608100000000     0.939800000000     0.511700000000     0          
C9       C      0.592830000000     0.866580000000     0.407210000000     0          
Zr1      Zr     0.625000000000     0.125000000000     0.562920000000     0          
F1       F      0.142380000000     0.341940000000     0.190270000000     0          
O1       O      0.923550000000     0.374470000000     0.285730000000     0          
C3       C      0.013450000000     0.365030000000     0.279270000000     0          
H1       H      0.019300000000     0.367000000000     0.301800000000     0          
C4       C      0.037800000000     0.359800000000     0.255440000000     0          
H2       H      0.060200000000     0.358100000000     0.261700000000     0          
C9       C      0.133420000000     0.342830000000     0.157210000000     0          
Zr1      Zr     0.875000000000     0.375000000000     0.312920000000     0          
O2       O      0.842470000000     0.342470000000     0.342470000000     0          
O3       O      0.845490000000     0.404510000000     0.345490000000     0          
C1       C      0.953670000000     0.372240000000     0.296330000000     0          
C2       C      0.980240000000     0.367470000000     0.269760000000     0          
C5       C      0.028510000000     0.356900000000     0.221490000000     0          
C6       C      0.053890000000     0.351400000000     0.196110000000     0          
C7       C      0.074920000000     0.346900000000     0.175080000000     0          
C8       C      0.100330000000     0.343700000000     0.149670000000     0          
F1       F      0.658060000000     0.892380000000     0.940270000000     0          
O1       O      0.625530000000     0.673550000000     0.035730000000     0          
C3       C      0.634970000000     0.763450000000     0.029270000000     0          
H1       H      0.633000000000     0.769300000000     0.051800000000     0          
C4       C      0.640200000000     0.787800000000     0.005440000000     0          
H2       H      0.641900000000     0.810200000000     0.011700000000     0          
C9       C      0.657170000000     0.883420000000     0.907210000000     0          
O2       O      0.657530000000     0.592470000000     0.092470000000     0          
C1       C      0.627760000000     0.703670000000     0.046330000000     0          
C2       C      0.632530000000     0.730240000000     0.019760000000     0          
C5       C      0.643100000000     0.778510000000     0.971490000000     0          
C6       C      0.648600000000     0.803890000000     0.946110000000     0          
C7       C      0.653100000000     0.824920000000     0.925080000000     0          
C8       C      0.656300000000     0.850330000000     0.899670000000     0          
F1       F      0.107620000000     0.341940000000     0.059730000000     0          
O1       O      0.326450000000     0.374470000000     0.964270000000     0          
C3       C      0.236550000000     0.365030000000     0.970730000000     0          
H1       H      0.230700000000     0.367000000000     0.948200000000     0          
C4       C      0.212200000000     0.359800000000     0.994560000000     0          
H2       H      0.189800000000     0.358100000000     0.988300000000     0          
C9       C      0.116580000000     0.342830000000     0.092790000000     0          
C1       C      0.296330000000     0.372240000000     0.953670000000     0          
C2       C      0.269760000000     0.367470000000     0.980240000000     0          
C5       C      0.221490000000     0.356900000000     0.028510000000     0          
C6       C      0.196110000000     0.351400000000     0.053890000000     0          
C7       C      0.175080000000     0.346900000000     0.074920000000     0          
C8       C      0.149670000000     0.343700000000     0.100330000000     0          
F1       F      0.658060000000     0.857620000000     0.809730000000     0          
O1       O      0.625530000000     0.076450000000     0.714270000000     0          
C3       C      0.634970000000     0.986550000000     0.720730000000     0          
H1       H      0.633000000000     0.980700000000     0.698200000000     0          
C4       C      0.640200000000     0.962200000000     0.744560000000     0          
H2       H      0.641900000000     0.939800000000     0.738300000000     0          
C9       C      0.657170000000     0.866580000000     0.842790000000     0          
Zr1      Zr     0.625000000000     0.125000000000     0.687080000000     0          
O3       O      0.595490000000     0.154510000000     0.654510000000     0          
C1       C      0.627760000000     0.046330000000     0.703670000000     0          
C2       C      0.632530000000     0.019760000000     0.730240000000     0          
C5       C      0.643100000000     0.971490000000     0.778510000000     0          
C6       C      0.648600000000     0.946110000000     0.803890000000     0          
C7       C      0.653100000000     0.925080000000     0.824920000000     0          
C8       C      0.656300000000     0.899670000000     0.850330000000     0          
F1       F      0.142380000000     0.408060000000     0.559730000000     0          
O1       O      0.923550000000     0.375530000000     0.464270000000     0          
C3       C      0.013450000000     0.384970000000     0.470730000000     0          
H1       H      0.019300000000     0.383000000000     0.448200000000     0          
C4       C      0.037800000000     0.390200000000     0.494560000000     0          
H2       H      0.060200000000     0.391900000000     0.488300000000     0          
C9       C      0.133420000000     0.407170000000     0.592790000000     0          
Zr1      Zr     0.875000000000     0.375000000000     0.437080000000     0          
F1       F      0.591940000000     0.892380000000     0.309730000000     0          
O1       O      0.624470000000     0.673550000000     0.214270000000     0          
C3       C      0.615030000000     0.763450000000     0.220730000000     0          
H1       H      0.617000000000     0.769300000000     0.198200000000     0          
C4       C      0.609800000000     0.787800000000     0.244560000000     0          
H2       H      0.608100000000     0.810200000000     0.238300000000     0          
C9       C      0.592830000000     0.883420000000     0.342790000000     0          
O3       O      0.654510000000     0.595490000000     0.154510000000     0          
C1       C      0.622240000000     0.703670000000     0.203670000000     0          
C2       C      0.617470000000     0.730240000000     0.230240000000     0          
C5       C      0.606900000000     0.778510000000     0.278510000000     0          
C6       C      0.601400000000     0.803890000000     0.303890000000     0          
C7       C      0.596900000000     0.824920000000     0.324920000000     0          
C8       C      0.593700000000     0.850330000000     0.350330000000     0          
F1       F      0.690270000000     0.107620000000     0.408060000000     0          
O1       O      0.785730000000     0.326450000000     0.375530000000     0          
C3       C      0.779270000000     0.236550000000     0.384970000000     0          
H1       H      0.801800000000     0.230700000000     0.383000000000     0          
C4       C      0.755440000000     0.212200000000     0.390200000000     0          
H2       H      0.761700000000     0.189800000000     0.391900000000     0          
C9       C      0.657210000000     0.116580000000     0.407170000000     0          
C1       C      0.796330000000     0.296330000000     0.377760000000     0          
C2       C      0.769760000000     0.269760000000     0.382530000000     0          
C5       C      0.721490000000     0.221490000000     0.393100000000     0          
C6       C      0.696110000000     0.196110000000     0.398600000000     0          
C7       C      0.675080000000     0.175080000000     0.403100000000     0          
C8       C      0.649670000000     0.149670000000     0.406300000000     0          
F1       F      0.190270000000     0.142380000000     0.341940000000     0          
O1       O      0.285730000000     0.923550000000     0.374470000000     0          
C3       C      0.279270000000     0.013450000000     0.365030000000     0          
H1       H      0.301800000000     0.019300000000     0.367000000000     0          
C4       C      0.255440000000     0.037800000000     0.359800000000     0          
H2       H      0.261700000000     0.060200000000     0.358100000000     0          
C9       C      0.157210000000     0.133420000000     0.342830000000     0          
Zr1      Zr     0.312920000000     0.875000000000     0.375000000000     0          
C1       C      0.296330000000     0.953670000000     0.372240000000     0          
C2       C      0.269760000000     0.980240000000     0.367470000000     0          
C5       C      0.221490000000     0.028510000000     0.356900000000     0          
C6       C      0.196110000000     0.053890000000     0.351400000000     0          
C7       C      0.175080000000     0.074920000000     0.346900000000     0          
C8       C      0.149670000000     0.100330000000     0.343700000000     0          
F1       F      0.857620000000     0.940270000000     0.091940000000     0          
O1       O      0.076450000000     0.035730000000     0.124470000000     0          
C3       C      0.986550000000     0.029270000000     0.115030000000     0          
H1       H      0.980700000000     0.051800000000     0.117000000000     0          
C4       C      0.962200000000     0.005440000000     0.109800000000     0          
H2       H      0.939800000000     0.011700000000     0.108100000000     0          
C9       C      0.866580000000     0.907210000000     0.092830000000     0          
C1       C      0.046330000000     0.046330000000     0.122240000000     0          
C2       C      0.019760000000     0.019760000000     0.117470000000     0          
C5       C      0.971490000000     0.971490000000     0.106900000000     0          
C6       C      0.946110000000     0.946110000000     0.101400000000     0          
C7       C      0.925080000000     0.925080000000     0.096900000000     0          
C8       C      0.899670000000     0.899670000000     0.093700000000     0          
F1       F      0.059730000000     0.607620000000     0.841940000000     0          
O1       O      0.964270000000     0.826450000000     0.874470000000     0          
C3       C      0.970730000000     0.736550000000     0.865030000000     0          
H1       H      0.948200000000     0.730700000000     0.867000000000     0          
C4       C      0.994560000000     0.712200000000     0.859800000000     0          
H2       H      0.988300000000     0.689800000000     0.858100000000     0          
C9       C      0.092790000000     0.616580000000     0.842830000000     0          
O2       O      0.907530000000     0.907530000000     0.842470000000     0          
F1       F      0.892380000000     0.809730000000     0.091940000000     0          
O1       O      0.673550000000     0.714270000000     0.124470000000     0          
C3       C      0.763450000000     0.720730000000     0.115030000000     0          
H1       H      0.769300000000     0.698200000000     0.117000000000     0          
C4       C      0.787800000000     0.744560000000     0.109800000000     0          
H2       H      0.810200000000     0.738300000000     0.108100000000     0          
C9       C      0.883420000000     0.842790000000     0.092830000000     0          
Zr1      Zr     0.625000000000     0.687080000000     0.125000000000     0          
C1       C      0.703670000000     0.703670000000     0.122240000000     0          
C2       C      0.730240000000     0.730240000000     0.117470000000     0          
C5       C      0.778510000000     0.778510000000     0.106900000000     0          
C6       C      0.803890000000     0.803890000000     0.101400000000     0          
C7       C      0.824920000000     0.824920000000     0.096900000000     0          
C8       C      0.850330000000     0.850330000000     0.093700000000     0          
F1       F      0.059730000000     0.642380000000     0.408060000000     0          
O1       O      0.964270000000     0.423550000000     0.375530000000     0          
C3       C      0.970730000000     0.513450000000     0.384970000000     0          
H1       H      0.948200000000     0.519300000000     0.383000000000     0          
C4       C      0.994560000000     0.537800000000     0.390200000000     0          
H2       H      0.988300000000     0.560200000000     0.391900000000     0          
C9       C      0.092790000000     0.633420000000     0.407170000000     0          
O2       O      0.907530000000     0.342470000000     0.407530000000     0          
C1       C      0.953670000000     0.453670000000     0.377760000000     0          
C2       C      0.980240000000     0.480240000000     0.382530000000     0          
C5       C      0.028510000000     0.528510000000     0.393100000000     0          
C6       C      0.053890000000     0.553890000000     0.398600000000     0          
C7       C      0.074920000000     0.574920000000     0.403100000000     0          
C8       C      0.100330000000     0.600330000000     0.406300000000     0          
F1       F      0.857620000000     0.309730000000     0.158060000000     0          
O1       O      0.076450000000     0.214270000000     0.125530000000     0          
C3       C      0.986550000000     0.220730000000     0.134970000000     0          
H1       H      0.980700000000     0.198200000000     0.133000000000     0          
C4       C      0.962200000000     0.244560000000     0.140200000000     0          
H2       H      0.939800000000     0.238300000000     0.141900000000     0          
C9       C      0.866580000000     0.342790000000     0.157170000000     0          
O3       O      0.154510000000     0.154510000000     0.095490000000     0          
F1       F      0.392380000000     0.440270000000     0.658060000000     0          
O1       O      0.173550000000     0.535730000000     0.625530000000     0          
C3       C      0.263450000000     0.529270000000     0.634970000000     0          
H1       H      0.269300000000     0.551800000000     0.633000000000     0          
C4       C      0.287800000000     0.505440000000     0.640200000000     0          
H2       H      0.310200000000     0.511700000000     0.641900000000     0          
C9       C      0.383420000000     0.407210000000     0.657170000000     0          
Zr1      Zr     0.125000000000     0.562920000000     0.625000000000     0          
O3       O      0.095490000000     0.595490000000     0.595490000000     0          
C1       C      0.203670000000     0.546330000000     0.627760000000     0          
C2       C      0.230240000000     0.519760000000     0.632530000000     0          
C5       C      0.278510000000     0.471490000000     0.643100000000     0          
C6       C      0.303890000000     0.446110000000     0.648600000000     0          
C7       C      0.324920000000     0.425080000000     0.653100000000     0          
C8       C      0.350330000000     0.399670000000     0.656300000000     0          
F1       F      0.591940000000     0.809730000000     0.392380000000     0          
O1       O      0.624470000000     0.714270000000     0.173550000000     0          
C3       C      0.615030000000     0.720730000000     0.263450000000     0          
H1       H      0.617000000000     0.698200000000     0.269300000000     0          
C4       C      0.609800000000     0.744560000000     0.287800000000     0          
H2       H      0.608100000000     0.738300000000     0.310200000000     0          
C9       C      0.592830000000     0.842790000000     0.383420000000     0          
O3       O      0.654510000000     0.654510000000     0.095490000000     0          
F1       F      0.690270000000     0.341940000000     0.642380000000     0          
O1       O      0.785730000000     0.374470000000     0.423550000000     0          
C3       C      0.779270000000     0.365030000000     0.513450000000     0          
H1       H      0.801800000000     0.367000000000     0.519300000000     0          
C4       C      0.755440000000     0.359800000000     0.537800000000     0          
H2       H      0.761700000000     0.358100000000     0.560200000000     0          
C9       C      0.657210000000     0.342830000000     0.633420000000     0          
C1       C      0.796330000000     0.372240000000     0.453670000000     0          
C2       C      0.769760000000     0.367470000000     0.480240000000     0          
C5       C      0.721490000000     0.356900000000     0.528510000000     0          
C6       C      0.696110000000     0.351400000000     0.553890000000     0          
C7       C      0.675080000000     0.346900000000     0.574920000000     0          
C8       C      0.649670000000     0.343700000000     0.600330000000     0          
F1       F      0.158060000000     0.440270000000     0.892380000000     0          
O1       O      0.125530000000     0.535730000000     0.673550000000     0          
C3       C      0.134970000000     0.529270000000     0.763450000000     0          
H1       H      0.133000000000     0.551800000000     0.769300000000     0          
C4       C      0.140200000000     0.505440000000     0.787800000000     0          
H2       H      0.141900000000     0.511700000000     0.810200000000     0          
C9       C      0.157170000000     0.407210000000     0.883420000000     0          
C1       C      0.127760000000     0.546330000000     0.703670000000     0          
C2       C      0.132530000000     0.519760000000     0.730240000000     0          
C5       C      0.143100000000     0.471490000000     0.778510000000     0          
C6       C      0.148600000000     0.446110000000     0.803890000000     0          
C7       C      0.153100000000     0.425080000000     0.824920000000     0          
C8       C      0.156300000000     0.399670000000     0.850330000000     0          
F1       F      0.059730000000     0.908060000000     0.142380000000     0          
O1       O      0.964270000000     0.875530000000     0.923550000000     0          
C3       C      0.970730000000     0.884970000000     0.013450000000     0          
H1       H      0.948200000000     0.883000000000     0.019300000000     0          
C4       C      0.994560000000     0.890200000000     0.037800000000     0          
H2       H      0.988300000000     0.891900000000     0.060200000000     0          
C9       C      0.092790000000     0.907170000000     0.133420000000     0          
C1       C      0.953670000000     0.877760000000     0.953670000000     0          
C2       C      0.980240000000     0.882530000000     0.980240000000     0          
C5       C      0.028510000000     0.893100000000     0.028510000000     0          
C6       C      0.053890000000     0.898600000000     0.053890000000     0          
C7       C      0.074920000000     0.903100000000     0.074920000000     0          
C8       C      0.100330000000     0.906300000000     0.100330000000     0          
F1       F      0.591940000000     0.440270000000     0.857620000000     0          
O1       O      0.624470000000     0.535730000000     0.076450000000     0          
C3       C      0.615030000000     0.529270000000     0.986550000000     0          
H1       H      0.617000000000     0.551800000000     0.980700000000     0          
C4       C      0.609800000000     0.505440000000     0.962200000000     0          
H2       H      0.608100000000     0.511700000000     0.939800000000     0          
C9       C      0.592830000000     0.407210000000     0.866580000000     0          
Zr1      Zr     0.625000000000     0.562920000000     0.125000000000     0          
C1       C      0.622240000000     0.546330000000     0.046330000000     0          
C2       C      0.617470000000     0.519760000000     0.019760000000     0          
C5       C      0.606900000000     0.471490000000     0.971490000000     0          
C6       C      0.601400000000     0.446110000000     0.946110000000     0          
C7       C      0.596900000000     0.425080000000     0.925080000000     0          
C8       C      0.593700000000     0.399670000000     0.899670000000     0          
F1       F      0.059730000000     0.341940000000     0.107620000000     0          
O1       O      0.964270000000     0.374470000000     0.326450000000     0          
C3       C      0.970730000000     0.365030000000     0.236550000000     0          
H1       H      0.948200000000     0.367000000000     0.230700000000     0          
C4       C      0.994560000000     0.359800000000     0.212200000000     0          
H2       H      0.988300000000     0.358100000000     0.189800000000     0          
C9       C      0.092790000000     0.342830000000     0.116580000000     0          
F1       F      0.158060000000     0.809730000000     0.357620000000     0          
O1       O      0.125530000000     0.714270000000     0.576450000000     0          
C3       C      0.134970000000     0.720730000000     0.486550000000     0          
H1       H      0.133000000000     0.698200000000     0.480700000000     0          
C4       C      0.140200000000     0.744560000000     0.462200000000     0          
H2       H      0.141900000000     0.738300000000     0.439800000000     0          
C9       C      0.157170000000     0.842790000000     0.366580000000     0          
Zr1      Zr     0.125000000000     0.687080000000     0.625000000000     0          
C1       C      0.127760000000     0.703670000000     0.546330000000     0          
C2       C      0.132530000000     0.730240000000     0.519760000000     0          
C5       C      0.143100000000     0.778510000000     0.471490000000     0          
C6       C      0.148600000000     0.803890000000     0.446110000000     0          
C7       C      0.153100000000     0.824920000000     0.425080000000     0          
C8       C      0.156300000000     0.850330000000     0.399670000000     0          
F1       F      0.690270000000     0.908060000000     0.607620000000     0          
O1       O      0.785730000000     0.875530000000     0.826450000000     0          
C3       C      0.779270000000     0.884970000000     0.736550000000     0          
H1       H      0.801800000000     0.883000000000     0.730700000000     0          
C4       C      0.755440000000     0.890200000000     0.712200000000     0          
H2       H      0.761700000000     0.891900000000     0.689800000000     0          
C9       C      0.657210000000     0.907170000000     0.616580000000     0          
C1       C      0.796330000000     0.877760000000     0.796330000000     0          
C2       C      0.769760000000     0.882530000000     0.769760000000     0          
C5       C      0.721490000000     0.893100000000     0.721490000000     0          
C6       C      0.696110000000     0.898600000000     0.696110000000     0          
C7       C      0.675080000000     0.903100000000     0.675080000000     0          
C8       C      0.649670000000     0.906300000000     0.649670000000     0          
F1       F      0.892380000000     0.091940000000     0.809730000000     0          
O1       O      0.673550000000     0.124470000000     0.714270000000     0          
C3       C      0.763450000000     0.115030000000     0.720730000000     0          
H1       H      0.769300000000     0.117000000000     0.698200000000     0          
C4       C      0.787800000000     0.109800000000     0.744560000000     0          
H2       H      0.810200000000     0.108100000000     0.738300000000     0          
C9       C      0.883420000000     0.092830000000     0.842790000000     0          
C1       C      0.703670000000     0.122240000000     0.703670000000     0          
C2       C      0.730240000000     0.117470000000     0.730240000000     0          
C5       C      0.778510000000     0.106900000000     0.778510000000     0          
C6       C      0.803890000000     0.101400000000     0.803890000000     0          
C7       C      0.824920000000     0.096900000000     0.824920000000     0          
C8       C      0.850330000000     0.093700000000     0.850330000000     0          
F1       F      0.408060000000     0.642380000000     0.059730000000     0          
O1       O      0.375530000000     0.423550000000     0.964270000000     0          
C3       C      0.384970000000     0.513450000000     0.970730000000     0          
H1       H      0.383000000000     0.519300000000     0.948200000000     0          
C4       C      0.390200000000     0.537800000000     0.994560000000     0          
H2       H      0.391900000000     0.560200000000     0.988300000000     0          
C9       C      0.407170000000     0.633420000000     0.092790000000     0          
O3       O      0.345490000000     0.345490000000     0.904510000000     0          
C1       C      0.377760000000     0.453670000000     0.953670000000     0          
C2       C      0.382530000000     0.480240000000     0.980240000000     0          
C5       C      0.393100000000     0.528510000000     0.028510000000     0          
C6       C      0.398600000000     0.553890000000     0.053890000000     0          
C7       C      0.403100000000     0.574920000000     0.074920000000     0          
C8       C      0.406300000000     0.600330000000     0.100330000000     0          
F1       F      0.857620000000     0.158060000000     0.309730000000     0          
O1       O      0.076450000000     0.125530000000     0.214270000000     0          
C3       C      0.986550000000     0.134970000000     0.220730000000     0          
H1       H      0.980700000000     0.133000000000     0.198200000000     0          
C4       C      0.962200000000     0.140200000000     0.244560000000     0          
H2       H      0.939800000000     0.141900000000     0.238300000000     0          
C9       C      0.866580000000     0.157170000000     0.342790000000     0          
Zr1      Zr     0.125000000000     0.125000000000     0.187080000000     0          
F1       F      0.341940000000     0.607620000000     0.559730000000     0          
O1       O      0.374470000000     0.826450000000     0.464270000000     0          
C3       C      0.365030000000     0.736550000000     0.470730000000     0          
H1       H      0.367000000000     0.730700000000     0.448200000000     0          
C4       C      0.359800000000     0.712200000000     0.494560000000     0          
H2       H      0.358100000000     0.689800000000     0.488300000000     0          
C9       C      0.342830000000     0.616580000000     0.592790000000     0          
O2       O      0.342470000000     0.907530000000     0.407530000000     0          
O3       O      0.404510000000     0.904510000000     0.404510000000     0          
C1       C      0.372240000000     0.796330000000     0.453670000000     0          
C2       C      0.367470000000     0.769760000000     0.480240000000     0          
C5       C      0.356900000000     0.721490000000     0.528510000000     0          
C6       C      0.351400000000     0.696110000000     0.553890000000     0          
C7       C      0.346900000000     0.675080000000     0.574920000000     0          
C8       C      0.343700000000     0.649670000000     0.600330000000     0          
F1       F      0.892380000000     0.158060000000     0.440270000000     0          
O1       O      0.673550000000     0.125530000000     0.535730000000     0          
C3       C      0.763450000000     0.134970000000     0.529270000000     0          
H1       H      0.769300000000     0.133000000000     0.551800000000     0          
C4       C      0.787800000000     0.140200000000     0.505440000000     0          
H2       H      0.810200000000     0.141900000000     0.511700000000     0          
C9       C      0.883420000000     0.157170000000     0.407210000000     0          
O3       O      0.595490000000     0.095490000000     0.595490000000     0          
C1       C      0.703670000000     0.127760000000     0.546330000000     0          
C2       C      0.730240000000     0.132530000000     0.519760000000     0          
C5       C      0.778510000000     0.143100000000     0.471490000000     0          
C6       C      0.803890000000     0.148600000000     0.446110000000     0          
C7       C      0.824920000000     0.153100000000     0.425080000000     0          
C8       C      0.850330000000     0.156300000000     0.399670000000     0          
F1       F      0.341940000000     0.642380000000     0.690270000000     0          
O1       O      0.374470000000     0.423550000000     0.785730000000     0          
C3       C      0.365030000000     0.513450000000     0.779270000000     0          
H1       H      0.367000000000     0.519300000000     0.801800000000     0          
C4       C      0.359800000000     0.537800000000     0.755440000000     0          
H2       H      0.358100000000     0.560200000000     0.761700000000     0          
C9       C      0.342830000000     0.633420000000     0.657210000000     0          
O2       O      0.342470000000     0.342470000000     0.842470000000     0          
C1       C      0.372240000000     0.453670000000     0.796330000000     0          
C2       C      0.367470000000     0.480240000000     0.769760000000     0          
C5       C      0.356900000000     0.528510000000     0.721490000000     0          
C6       C      0.351400000000     0.553890000000     0.696110000000     0          
C7       C      0.346900000000     0.574920000000     0.675080000000     0          
C8       C      0.343700000000     0.600330000000     0.649670000000     0          
F1       F      0.857620000000     0.091940000000     0.940270000000     0          
O1       O      0.076450000000     0.124470000000     0.035730000000     0          
C3       C      0.986550000000     0.115030000000     0.029270000000     0          
H1       H      0.980700000000     0.117000000000     0.051800000000     0          
C4       C      0.962200000000     0.109800000000     0.005440000000     0          
H2       H      0.939800000000     0.108100000000     0.011700000000     0          
C9       C      0.866580000000     0.092830000000     0.907210000000     0          
Zr1      Zr     0.125000000000     0.125000000000     0.062920000000     0          
C1       C      0.046330000000     0.122240000000     0.046330000000     0          
C2       C      0.019760000000     0.117470000000     0.019760000000     0          
C5       C      0.971490000000     0.106900000000     0.971490000000     0          
C6       C      0.946110000000     0.101400000000     0.946110000000     0          
C7       C      0.925080000000     0.096900000000     0.925080000000     0          
C8       C      0.899670000000     0.093700000000     0.899670000000     0          
F1       F      0.408060000000     0.607620000000     0.190270000000     0          
O1       O      0.375530000000     0.826450000000     0.285730000000     0          
C3       C      0.384970000000     0.736550000000     0.279270000000     0          
H1       H      0.383000000000     0.730700000000     0.301800000000     0          
C4       C      0.390200000000     0.712200000000     0.255440000000     0          
H2       H      0.391900000000     0.689800000000     0.261700000000     0          
C9       C      0.407170000000     0.616580000000     0.157210000000     0          
F1       F      0.309730000000     0.392380000000     0.091940000000     0          
O1       O      0.214270000000     0.173550000000     0.124470000000     0          
C3       C      0.220730000000     0.263450000000     0.115030000000     0          
H1       H      0.198200000000     0.269300000000     0.117000000000     0          
C4       C      0.244560000000     0.287800000000     0.109800000000     0          
H2       H      0.238300000000     0.310200000000     0.108100000000     0          
C9       C      0.342790000000     0.383420000000     0.092830000000     0          
C1       C      0.203670000000     0.203670000000     0.122240000000     0          
C2       C      0.230240000000     0.230240000000     0.117470000000     0          
C5       C      0.278510000000     0.278510000000     0.106900000000     0          
C6       C      0.303890000000     0.303890000000     0.101400000000     0          
C7       C      0.324920000000     0.324920000000     0.096900000000     0          
C8       C      0.350330000000     0.350330000000     0.093700000000     0          
F1       F      0.809730000000     0.357620000000     0.158060000000     0          
O1       O      0.714270000000     0.576450000000     0.125530000000     0          
C3       C      0.720730000000     0.486550000000     0.134970000000     0          
H1       H      0.698200000000     0.480700000000     0.133000000000     0          
C4       C      0.744560000000     0.462200000000     0.140200000000     0          
H2       H      0.738300000000     0.439800000000     0.141900000000     0          
C9       C      0.842790000000     0.366580000000     0.157170000000     0          
Zr1      Zr     0.687080000000     0.625000000000     0.125000000000     0          
O2       O      0.657530000000     0.657530000000     0.157530000000     0          
C1       C      0.703670000000     0.546330000000     0.127760000000     0          
C2       C      0.730240000000     0.519760000000     0.132530000000     0          
C5       C      0.778510000000     0.471490000000     0.143100000000     0          
C6       C      0.803890000000     0.446110000000     0.148600000000     0          
C7       C      0.824920000000     0.425080000000     0.153100000000     0          
C8       C      0.850330000000     0.399670000000     0.156300000000     0          
F1       F      0.142380000000     0.559730000000     0.408060000000     0          
O1       O      0.923550000000     0.464270000000     0.375530000000     0          
C3       C      0.013450000000     0.470730000000     0.384970000000     0          
H1       H      0.019300000000     0.448200000000     0.383000000000     0          
C4       C      0.037800000000     0.494560000000     0.390200000000     0          
H2       H      0.060200000000     0.488300000000     0.391900000000     0          
C9       C      0.133420000000     0.592790000000     0.407170000000     0          
F1       F      0.940270000000     0.892380000000     0.658060000000     0          
O1       O      0.035730000000     0.673550000000     0.625530000000     0          
C3       C      0.029270000000     0.763450000000     0.634970000000     0          
H1       H      0.051800000000     0.769300000000     0.633000000000     0          
C4       C      0.005440000000     0.787800000000     0.640200000000     0          
H2       H      0.011700000000     0.810200000000     0.641900000000     0          
C9       C      0.907210000000     0.883420000000     0.657170000000     0          
C1       C      0.046330000000     0.703670000000     0.627760000000     0          
C2       C      0.019760000000     0.730240000000     0.632530000000     0          
C5       C      0.971490000000     0.778510000000     0.643100000000     0          
C6       C      0.946110000000     0.803890000000     0.648600000000     0          
C7       C      0.925080000000     0.824920000000     0.653100000000     0          
C8       C      0.899670000000     0.850330000000     0.656300000000     0          
F1       F      0.107620000000     0.690270000000     0.408060000000     0          
O1       O      0.326450000000     0.785730000000     0.375530000000     0          
C3       C      0.236550000000     0.779270000000     0.384970000000     0          
H1       H      0.230700000000     0.801800000000     0.383000000000     0          
C4       C      0.212200000000     0.755440000000     0.390200000000     0          
H2       H      0.189800000000     0.761700000000     0.391900000000     0          
C9       C      0.116580000000     0.657210000000     0.407170000000     0          
C1       C      0.296330000000     0.796330000000     0.377760000000     0          
C2       C      0.269760000000     0.769760000000     0.382530000000     0          
C5       C      0.221490000000     0.721490000000     0.393100000000     0          
C6       C      0.196110000000     0.696110000000     0.398600000000     0          
C7       C      0.175080000000     0.675080000000     0.403100000000     0          
C8       C      0.149670000000     0.649670000000     0.406300000000     0          
F1       F      0.940270000000     0.857620000000     0.091940000000     0          
O1       O      0.035730000000     0.076450000000     0.124470000000     0          
C3       C      0.029270000000     0.986550000000     0.115030000000     0          
H1       H      0.051800000000     0.980700000000     0.117000000000     0          
C4       C      0.005440000000     0.962200000000     0.109800000000     0          
H2       H      0.011700000000     0.939800000000     0.108100000000     0          
C9       C      0.907210000000     0.866580000000     0.092830000000     0          
F1       F      0.142380000000     0.190270000000     0.341940000000     0          
O1       O      0.923550000000     0.285730000000     0.374470000000     0          
C3       C      0.013450000000     0.279270000000     0.365030000000     0          
H1       H      0.019300000000     0.301800000000     0.367000000000     0          
C4       C      0.037800000000     0.255440000000     0.359800000000     0          
H2       H      0.060200000000     0.261700000000     0.358100000000     0          
C9       C      0.133420000000     0.157210000000     0.342830000000     0          
Zr1      Zr     0.875000000000     0.312920000000     0.375000000000     0          
C1       C      0.953670000000     0.296330000000     0.372240000000     0          
C2       C      0.980240000000     0.269760000000     0.367470000000     0          
C5       C      0.028510000000     0.221490000000     0.356900000000     0          
C6       C      0.053890000000     0.196110000000     0.351400000000     0          
C7       C      0.074920000000     0.175080000000     0.346900000000     0          
C8       C      0.100330000000     0.149670000000     0.343700000000     0          
F1       F      0.607620000000     0.059730000000     0.841940000000     0          
O1       O      0.826450000000     0.964270000000     0.874470000000     0          
C3       C      0.736550000000     0.970730000000     0.865030000000     0          
H1       H      0.730700000000     0.948200000000     0.867000000000     0          
C4       C      0.712200000000     0.994560000000     0.859800000000     0          
H2       H      0.689800000000     0.988300000000     0.858100000000     0          
C9       C      0.616580000000     0.092790000000     0.842830000000     0          
C1       C      0.796330000000     0.953670000000     0.872240000000     0          
C2       C      0.769760000000     0.980240000000     0.867470000000     0          
C5       C      0.721490000000     0.028510000000     0.856900000000     0          
C6       C      0.696110000000     0.053890000000     0.851400000000     0          
C7       C      0.675080000000     0.074920000000     0.846900000000     0          
C8       C      0.649670000000     0.100330000000     0.843700000000     0          
F1       F      0.408060000000     0.190270000000     0.607620000000     0          
O1       O      0.375530000000     0.285730000000     0.826450000000     0          
C3       C      0.384970000000     0.279270000000     0.736550000000     0          
H1       H      0.383000000000     0.301800000000     0.730700000000     0          
C4       C      0.390200000000     0.255440000000     0.712200000000     0          
H2       H      0.391900000000     0.261700000000     0.689800000000     0          
C9       C      0.407170000000     0.157210000000     0.616580000000     0          
F1       F      0.309730000000     0.658060000000     0.357620000000     0          
O1       O      0.214270000000     0.625530000000     0.576450000000     0          
C3       C      0.220730000000     0.634970000000     0.486550000000     0          
H1       H      0.198200000000     0.633000000000     0.480700000000     0          
C4       C      0.244560000000     0.640200000000     0.462200000000     0          
H2       H      0.238300000000     0.641900000000     0.439800000000     0          
C9       C      0.342790000000     0.657170000000     0.366580000000     0          
C1       C      0.203670000000     0.627760000000     0.546330000000     0          
C2       C      0.230240000000     0.632530000000     0.519760000000     0          
C5       C      0.278510000000     0.643100000000     0.471490000000     0          
C6       C      0.303890000000     0.648600000000     0.446110000000     0          
C7       C      0.324920000000     0.653100000000     0.425080000000     0          
C8       C      0.350330000000     0.656300000000     0.399670000000     0          
F1       F      0.841940000000     0.559730000000     0.107620000000     0          
O1       O      0.874470000000     0.464270000000     0.326450000000     0          
C3       C      0.865030000000     0.470730000000     0.236550000000     0          
H1       H      0.867000000000     0.448200000000     0.230700000000     0          
C4       C      0.859800000000     0.494560000000     0.212200000000     0          
H2       H      0.858100000000     0.488300000000     0.189800000000     0          
C9       C      0.842830000000     0.592790000000     0.116580000000     0          
C1       C      0.872240000000     0.453670000000     0.296330000000     0          
C2       C      0.867470000000     0.480240000000     0.269760000000     0          
C5       C      0.856900000000     0.528510000000     0.221490000000     0          
C6       C      0.851400000000     0.553890000000     0.196110000000     0          
C7       C      0.846900000000     0.574920000000     0.175080000000     0          
C8       C      0.843700000000     0.600330000000     0.149670000000     0          
F1       F      0.940270000000     0.091940000000     0.857620000000     0          
O1       O      0.035730000000     0.124470000000     0.076450000000     0          
C3       C      0.029270000000     0.115030000000     0.986550000000     0          
H1       H      0.051800000000     0.117000000000     0.980700000000     0          
C4       C      0.005440000000     0.109800000000     0.962200000000     0          
H2       H      0.011700000000     0.108100000000     0.939800000000     0          
C9       C      0.907210000000     0.092830000000     0.866580000000     0          
F1       F      0.408060000000     0.559730000000     0.142380000000     0          
O1       O      0.375530000000     0.464270000000     0.923550000000     0          
C3       C      0.384970000000     0.470730000000     0.013450000000     0          
H1       H      0.383000000000     0.448200000000     0.019300000000     0          
C4       C      0.390200000000     0.494560000000     0.037800000000     0          
H2       H      0.391900000000     0.488300000000     0.060200000000     0          
C9       C      0.407170000000     0.592790000000     0.133420000000     0          
Zr1      Zr     0.375000000000     0.437080000000     0.875000000000     0          
F1       F      0.940270000000     0.658060000000     0.892380000000     0          
O1       O      0.035730000000     0.625530000000     0.673550000000     0          
C3       C      0.029270000000     0.634970000000     0.763450000000     0          
H1       H      0.051800000000     0.633000000000     0.769300000000     0          
C4       C      0.005440000000     0.640200000000     0.787800000000     0          
H2       H      0.011700000000     0.641900000000     0.810200000000     0          
C9       C      0.907210000000     0.657170000000     0.883420000000     0          
F1       F      0.841940000000     0.190270000000     0.642380000000     0          
O1       O      0.874470000000     0.285730000000     0.423550000000     0          
C3       C      0.865030000000     0.279270000000     0.513450000000     0          
H1       H      0.867000000000     0.301800000000     0.519300000000     0          
C4       C      0.859800000000     0.255440000000     0.537800000000     0          
H2       H      0.858100000000     0.261700000000     0.560200000000     0          
C9       C      0.842830000000     0.157210000000     0.633420000000     0          
C1       C      0.872240000000     0.296330000000     0.453670000000     0          
C2       C      0.867470000000     0.269760000000     0.480240000000     0          
C5       C      0.856900000000     0.221490000000     0.528510000000     0          
C6       C      0.851400000000     0.196110000000     0.553890000000     0          
C7       C      0.846900000000     0.175080000000     0.574920000000     0          
C8       C      0.843700000000     0.149670000000     0.600330000000     0          
F1       F      0.309730000000     0.091940000000     0.392380000000     0          
O1       O      0.214270000000     0.124470000000     0.173550000000     0          
C3       C      0.220730000000     0.115030000000     0.263450000000     0          
H1       H      0.198200000000     0.117000000000     0.269300000000     0          
C4       C      0.244560000000     0.109800000000     0.287800000000     0          
H2       H      0.238300000000     0.108100000000     0.310200000000     0          
C9       C      0.342790000000     0.092830000000     0.383420000000     0          
C1       C      0.203670000000     0.122240000000     0.203670000000     0          
C2       C      0.230240000000     0.117470000000     0.230240000000     0          
C5       C      0.278510000000     0.106900000000     0.278510000000     0          
C6       C      0.303890000000     0.101400000000     0.303890000000     0          
C7       C      0.324920000000     0.096900000000     0.324920000000     0          
C8       C      0.350330000000     0.093700000000     0.350330000000     0          
F1       F      0.107620000000     0.908060000000     0.190270000000     0          
O1       O      0.326450000000     0.875530000000     0.285730000000     0          
C3       C      0.236550000000     0.884970000000     0.279270000000     0          
H1       H      0.230700000000     0.883000000000     0.301800000000     0          
C4       C      0.212200000000     0.890200000000     0.255440000000     0          
H2       H      0.189800000000     0.891900000000     0.261700000000     0          
C9       C      0.116580000000     0.907170000000     0.157210000000     0          
C1       C      0.296330000000     0.877760000000     0.296330000000     0          
C2       C      0.269760000000     0.882530000000     0.269760000000     0          
C5       C      0.221490000000     0.893100000000     0.221490000000     0          
C6       C      0.196110000000     0.898600000000     0.196110000000     0          
C7       C      0.175080000000     0.903100000000     0.175080000000     0          
C8       C      0.149670000000     0.906300000000     0.149670000000     0          
F1       F      0.591940000000     0.357620000000     0.940270000000     0          
O1       O      0.624470000000     0.576450000000     0.035730000000     0          
C3       C      0.615030000000     0.486550000000     0.029270000000     0          
H1       H      0.617000000000     0.480700000000     0.051800000000     0          
C4       C      0.609800000000     0.462200000000     0.005440000000     0          
H2       H      0.608100000000     0.439800000000     0.011700000000     0          
C9       C      0.592830000000     0.366580000000     0.907210000000     0          
F1       F      0.142380000000     0.841940000000     0.690270000000     0          
O1       O      0.923550000000     0.874470000000     0.785730000000     0          
C3       C      0.013450000000     0.865030000000     0.779270000000     0          
H1       H      0.019300000000     0.867000000000     0.801800000000     0          
C4       C      0.037800000000     0.859800000000     0.755440000000     0          
H2       H      0.060200000000     0.858100000000     0.761700000000     0          
C9       C      0.133420000000     0.842830000000     0.657210000000     0          
Zr1      Zr     0.875000000000     0.875000000000     0.812920000000     0          
F1       F      0.658060000000     0.392380000000     0.440270000000     0          
O1       O      0.625530000000     0.173550000000     0.535730000000     0          
C3       C      0.634970000000     0.263450000000     0.529270000000     0          
H1       H      0.633000000000     0.269300000000     0.551800000000     0          
C4       C      0.640200000000     0.287800000000     0.505440000000     0          
H2       H      0.641900000000     0.310200000000     0.511700000000     0          
C9       C      0.657170000000     0.383420000000     0.407210000000     0          
O2       O      0.657530000000     0.092470000000     0.592470000000     0          
C1       C      0.627760000000     0.203670000000     0.546330000000     0          
C2       C      0.632530000000     0.230240000000     0.519760000000     0          
C5       C      0.643100000000     0.278510000000     0.471490000000     0          
C6       C      0.648600000000     0.303890000000     0.446110000000     0          
C7       C      0.653100000000     0.324920000000     0.425080000000     0          
C8       C      0.656300000000     0.350330000000     0.399670000000     0          
F1       F      0.107620000000     0.841940000000     0.559730000000     0          
O1       O      0.326450000000     0.874470000000     0.464270000000     0          
C3       C      0.236550000000     0.865030000000     0.470730000000     0          
H1       H      0.230700000000     0.867000000000     0.448200000000     0          
C4       C      0.212200000000     0.859800000000     0.494560000000     0          
H2       H      0.189800000000     0.858100000000     0.488300000000     0          
C9       C      0.116580000000     0.842830000000     0.592790000000     0          
C1       C      0.296330000000     0.872240000000     0.453670000000     0          
C2       C      0.269760000000     0.867470000000     0.480240000000     0          
C5       C      0.221490000000     0.856900000000     0.528510000000     0          
C6       C      0.196110000000     0.851400000000     0.553890000000     0          
C7       C      0.175080000000     0.846900000000     0.574920000000     0          
C8       C      0.149670000000     0.843700000000     0.600330000000     0          
F1       F      0.658060000000     0.357620000000     0.309730000000     0          
O1       O      0.625530000000     0.576450000000     0.214270000000     0          
C3       C      0.634970000000     0.486550000000     0.220730000000     0          
H1       H      0.633000000000     0.480700000000     0.198200000000     0          
C4       C      0.640200000000     0.462200000000     0.244560000000     0          
H2       H      0.641900000000     0.439800000000     0.238300000000     0          
C9       C      0.657170000000     0.366580000000     0.342790000000     0          
C1       C      0.627760000000     0.546330000000     0.203670000000     0          
C2       C      0.632530000000     0.519760000000     0.230240000000     0          
C5       C      0.643100000000     0.471490000000     0.278510000000     0          
C6       C      0.648600000000     0.446110000000     0.303890000000     0          
C7       C      0.653100000000     0.425080000000     0.324920000000     0          
C8       C      0.656300000000     0.399670000000     0.350330000000     0          
F1       F      0.142380000000     0.908060000000     0.059730000000     0          
O1       O      0.923550000000     0.875530000000     0.964270000000     0          
C3       C      0.013450000000     0.884970000000     0.970730000000     0          
H1       H      0.019300000000     0.883000000000     0.948200000000     0          
C4       C      0.037800000000     0.890200000000     0.994560000000     0          
H2       H      0.060200000000     0.891900000000     0.988300000000     0          
C9       C      0.133420000000     0.907170000000     0.092790000000     0          
Zr1      Zr     0.875000000000     0.875000000000     0.937080000000     0          
F1       F      0.591940000000     0.392380000000     0.809730000000     0          
O1       O      0.624470000000     0.173550000000     0.714270000000     0          
C3       C      0.615030000000     0.263450000000     0.720730000000     0          
H1       H      0.617000000000     0.269300000000     0.698200000000     0          
C4       C      0.609800000000     0.287800000000     0.744560000000     0          
H2       H      0.608100000000     0.310200000000     0.738300000000     0          
C9       C      0.592830000000     0.383420000000     0.842790000000     0          
F1       F      0.690270000000     0.607620000000     0.908060000000     0          
O1       O      0.785730000000     0.826450000000     0.875530000000     0          
C3       C      0.779270000000     0.736550000000     0.884970000000     0          
H1       H      0.801800000000     0.730700000000     0.883000000000     0          
C4       C      0.755440000000     0.712200000000     0.890200000000     0          
H2       H      0.761700000000     0.689800000000     0.891900000000     0          
C9       C      0.657210000000     0.616580000000     0.907170000000     0          
C1       C      0.796330000000     0.796330000000     0.877760000000     0          
C2       C      0.769760000000     0.769760000000     0.882530000000     0          
C5       C      0.721490000000     0.721490000000     0.893100000000     0          
C6       C      0.696110000000     0.696110000000     0.898600000000     0          
C7       C      0.675080000000     0.675080000000     0.903100000000     0          
C8       C      0.649670000000     0.649670000000     0.906300000000     0          
F1       F      0.190270000000     0.642380000000     0.841940000000     0          
O1       O      0.285730000000     0.423550000000     0.874470000000     0          
C3       C      0.279270000000     0.513450000000     0.865030000000     0          
H1       H      0.301800000000     0.519300000000     0.867000000000     0          
C4       C      0.255440000000     0.537800000000     0.859800000000     0          
H2       H      0.261700000000     0.560200000000     0.858100000000     0          
C9       C      0.157210000000     0.633420000000     0.842830000000     0          
Zr1      Zr     0.312920000000     0.375000000000     0.875000000000     0          
C1       C      0.296330000000     0.453670000000     0.872240000000     0          
C2       C      0.269760000000     0.480240000000     0.867470000000     0          
C5       C      0.221490000000     0.528510000000     0.856900000000     0          
C6       C      0.196110000000     0.553890000000     0.851400000000     0          
C7       C      0.175080000000     0.574920000000     0.846900000000     0          
C8       C      0.149670000000     0.600330000000     0.843700000000     0          
F1       F      0.857620000000     0.440270000000     0.591940000000     0          
O1       O      0.076450000000     0.535730000000     0.624470000000     0          
C3       C      0.986550000000     0.529270000000     0.615030000000     0          
H1       H      0.980700000000     0.551800000000     0.617000000000     0          
C4       C      0.962200000000     0.505440000000     0.609800000000     0          
H2       H      0.939800000000     0.511700000000     0.608100000000     0          
C9       C      0.866580000000     0.407210000000     0.592830000000     0          
F1       F      0.059730000000     0.107620000000     0.341940000000     0          
O1       O      0.964270000000     0.326450000000     0.374470000000     0          
C3       C      0.970730000000     0.236550000000     0.365030000000     0          
H1       H      0.948200000000     0.230700000000     0.367000000000     0          
C4       C      0.994560000000     0.212200000000     0.359800000000     0          
H2       H      0.988300000000     0.189800000000     0.358100000000     0          
C9       C      0.092790000000     0.116580000000     0.342830000000     0          
F1       F      0.892380000000     0.309730000000     0.591940000000     0          
O1       O      0.673550000000     0.214270000000     0.624470000000     0          
C3       C      0.763450000000     0.220730000000     0.615030000000     0          
H1       H      0.769300000000     0.198200000000     0.617000000000     0          
C4       C      0.787800000000     0.244560000000     0.609800000000     0          
H2       H      0.810200000000     0.238300000000     0.608100000000     0          
C9       C      0.883420000000     0.342790000000     0.592830000000     0          
C1       C      0.703670000000     0.203670000000     0.622240000000     0          
C2       C      0.730240000000     0.230240000000     0.617470000000     0          
C5       C      0.778510000000     0.278510000000     0.606900000000     0          
C6       C      0.803890000000     0.303890000000     0.601400000000     0          
C7       C      0.824920000000     0.324920000000     0.596900000000     0          
C8       C      0.850330000000     0.350330000000     0.593700000000     0          
F1       F      0.059730000000     0.142380000000     0.908060000000     0          
O1       O      0.964270000000     0.923550000000     0.875530000000     0          
C3       C      0.970730000000     0.013450000000     0.884970000000     0          
H1       H      0.948200000000     0.019300000000     0.883000000000     0          
C4       C      0.994560000000     0.037800000000     0.890200000000     0          
H2       H      0.988300000000     0.060200000000     0.891900000000     0          
C9       C      0.092790000000     0.133420000000     0.907170000000     0          
F1       F      0.857620000000     0.809730000000     0.658060000000     0          
O1       O      0.076450000000     0.714270000000     0.625530000000     0          
C3       C      0.986550000000     0.720730000000     0.634970000000     0          
H1       H      0.980700000000     0.698200000000     0.633000000000     0          
C4       C      0.962200000000     0.744560000000     0.640200000000     0          
H2       H      0.939800000000     0.738300000000     0.641900000000     0          
C9       C      0.866580000000     0.842790000000     0.657170000000     0          
F1       F      0.392380000000     0.940270000000     0.158060000000     0          
O1       O      0.173550000000     0.035730000000     0.125530000000     0          
C3       C      0.263450000000     0.029270000000     0.134970000000     0          
H1       H      0.269300000000     0.051800000000     0.133000000000     0          
C4       C      0.287800000000     0.005440000000     0.140200000000     0          
H2       H      0.310200000000     0.011700000000     0.141900000000     0          
C9       C      0.383420000000     0.907210000000     0.157170000000     0          
C1       C      0.203670000000     0.046330000000     0.127760000000     0          
C2       C      0.230240000000     0.019760000000     0.132530000000     0          
C5       C      0.278510000000     0.971490000000     0.143100000000     0          
C6       C      0.303890000000     0.946110000000     0.148600000000     0          
C7       C      0.324920000000     0.925080000000     0.153100000000     0          
C8       C      0.350330000000     0.899670000000     0.156300000000     0          
F1       F      0.091940000000     0.309730000000     0.392380000000     0          
O1       O      0.124470000000     0.214270000000     0.173550000000     0          
C3       C      0.115030000000     0.220730000000     0.263450000000     0          
H1       H      0.117000000000     0.198200000000     0.269300000000     0          
C4       C      0.109800000000     0.244560000000     0.287800000000     0          
H2       H      0.108100000000     0.238300000000     0.310200000000     0          
C9       C      0.092830000000     0.342790000000     0.383420000000     0          
C1       C      0.122240000000     0.203670000000     0.203670000000     0          
C2       C      0.117470000000     0.230240000000     0.230240000000     0          
C5       C      0.106900000000     0.278510000000     0.278510000000     0          
C6       C      0.101400000000     0.303890000000     0.303890000000     0          
C7       C      0.096900000000     0.324920000000     0.324920000000     0          
C8       C      0.093700000000     0.350330000000     0.350330000000     0          
F1       F      0.190270000000     0.841940000000     0.642380000000     0          
O1       O      0.285730000000     0.874470000000     0.423550000000     0          
C3       C      0.279270000000     0.865030000000     0.513450000000     0          
H1       H      0.301800000000     0.867000000000     0.519300000000     0          
C4       C      0.255440000000     0.859800000000     0.537800000000     0          
H2       H      0.261700000000     0.858100000000     0.560200000000     0          
C9       C      0.157210000000     0.842830000000     0.633420000000     0          
F1       F      0.658060000000     0.940270000000     0.892380000000     0          
O1       O      0.625530000000     0.035730000000     0.673550000000     0          
C3       C      0.634970000000     0.029270000000     0.763450000000     0          
H1       H      0.633000000000     0.051800000000     0.769300000000     0          
C4       C      0.640200000000     0.005440000000     0.787800000000     0          
H2       H      0.641900000000     0.011700000000     0.810200000000     0          
C9       C      0.657170000000     0.907210000000     0.883420000000     0          
F1       F      0.559730000000     0.408060000000     0.142380000000     0          
O1       O      0.464270000000     0.375530000000     0.923550000000     0          
C3       C      0.470730000000     0.384970000000     0.013450000000     0          
H1       H      0.448200000000     0.383000000000     0.019300000000     0          
C4       C      0.494560000000     0.390200000000     0.037800000000     0          
H2       H      0.488300000000     0.391900000000     0.060200000000     0          
C9       C      0.592790000000     0.407170000000     0.133420000000     0          
Zr1      Zr     0.437080000000     0.375000000000     0.875000000000     0          
C1       C      0.453670000000     0.377760000000     0.953670000000     0          
C2       C      0.480240000000     0.382530000000     0.980240000000     0          
C5       C      0.528510000000     0.393100000000     0.028510000000     0          
C6       C      0.553890000000     0.398600000000     0.053890000000     0          
C7       C      0.574920000000     0.403100000000     0.074920000000     0          
C8       C      0.600330000000     0.406300000000     0.100330000000     0          
F1       F      0.091940000000     0.940270000000     0.857620000000     0          
O1       O      0.124470000000     0.035730000000     0.076450000000     0          
C3       C      0.115030000000     0.029270000000     0.986550000000     0          
H1       H      0.117000000000     0.051800000000     0.980700000000     0          
C4       C      0.109800000000     0.005440000000     0.962200000000     0          
H2       H      0.108100000000     0.011700000000     0.939800000000     0          
C9       C      0.092830000000     0.907210000000     0.866580000000     0          
C1       C      0.122240000000     0.046330000000     0.046330000000     0          
C2       C      0.117470000000     0.019760000000     0.019760000000     0          
C5       C      0.106900000000     0.971490000000     0.971490000000     0          
C6       C      0.101400000000     0.946110000000     0.946110000000     0          
C7       C      0.096900000000     0.925080000000     0.925080000000     0          
C8       C      0.093700000000     0.899670000000     0.899670000000     0          
F1       F      0.559730000000     0.841940000000     0.107620000000     0          
O1       O      0.464270000000     0.874470000000     0.326450000000     0          
C3       C      0.470730000000     0.865030000000     0.236550000000     0          
H1       H      0.448200000000     0.867000000000     0.230700000000     0          
C4       C      0.494560000000     0.859800000000     0.212200000000     0          
H2       H      0.488300000000     0.858100000000     0.189800000000     0          
C9       C      0.592790000000     0.842830000000     0.116580000000     0          
Zr1      Zr     0.437080000000     0.875000000000     0.375000000000     0          
C1       C      0.453670000000     0.872240000000     0.296330000000     0          
C2       C      0.480240000000     0.867470000000     0.269760000000     0          
C5       C      0.528510000000     0.856900000000     0.221490000000     0          
C6       C      0.553890000000     0.851400000000     0.196110000000     0          
C7       C      0.574920000000     0.846900000000     0.175080000000     0          
C8       C      0.600330000000     0.843700000000     0.149670000000     0          
F1       F      0.658060000000     0.309730000000     0.357620000000     0          
O1       O      0.625530000000     0.214270000000     0.576450000000     0          
C3       C      0.634970000000     0.220730000000     0.486550000000     0          
H1       H      0.633000000000     0.198200000000     0.480700000000     0          
C4       C      0.640200000000     0.244560000000     0.462200000000     0          
H2       H      0.641900000000     0.238300000000     0.439800000000     0          
C9       C      0.657170000000     0.342790000000     0.366580000000     0          
F1       F      0.190270000000     0.408060000000     0.607620000000     0          
O1       O      0.285730000000     0.375530000000     0.826450000000     0          
C3       C      0.279270000000     0.384970000000     0.736550000000     0          
H1       H      0.301800000000     0.383000000000     0.730700000000     0          
C4       C      0.255440000000     0.390200000000     0.712200000000     0          
H2       H      0.261700000000     0.391900000000     0.689800000000     0          
C9       C      0.157210000000     0.407170000000     0.616580000000     0          
F1       F      0.392380000000     0.591940000000     0.809730000000     0          
O1       O      0.173550000000     0.624470000000     0.714270000000     0          
C3       C      0.263450000000     0.615030000000     0.720730000000     0          
H1       H      0.269300000000     0.617000000000     0.698200000000     0          
C4       C      0.287800000000     0.609800000000     0.744560000000     0          
H2       H      0.310200000000     0.608100000000     0.738300000000     0          
C9       C      0.383420000000     0.592830000000     0.842790000000     0          
F1       F      0.908060000000     0.142380000000     0.059730000000     0          
O1       O      0.875530000000     0.923550000000     0.964270000000     0          
C3       C      0.884970000000     0.013450000000     0.970730000000     0          
H1       H      0.883000000000     0.019300000000     0.948200000000     0          
C4       C      0.890200000000     0.037800000000     0.994560000000     0          
H2       H      0.891900000000     0.060200000000     0.988300000000     0          
C9       C      0.907170000000     0.133420000000     0.092790000000     0          
C1       C      0.877760000000     0.953670000000     0.953670000000     0          
C2       C      0.882530000000     0.980240000000     0.980240000000     0          
C5       C      0.893100000000     0.028510000000     0.028510000000     0          
C6       C      0.898600000000     0.053890000000     0.053890000000     0          
C7       C      0.903100000000     0.074920000000     0.074920000000     0          
C8       C      0.906300000000     0.100330000000     0.100330000000     0          
F1       F      0.357620000000     0.658060000000     0.309730000000     0          
O1       O      0.576450000000     0.625530000000     0.214270000000     0          
C3       C      0.486550000000     0.634970000000     0.220730000000     0          
H1       H      0.480700000000     0.633000000000     0.198200000000     0          
C4       C      0.462200000000     0.640200000000     0.244560000000     0          
H2       H      0.439800000000     0.641900000000     0.238300000000     0          
C9       C      0.366580000000     0.657170000000     0.342790000000     0          
C1       C      0.546330000000     0.627760000000     0.203670000000     0          
C2       C      0.519760000000     0.632530000000     0.230240000000     0          
C5       C      0.471490000000     0.643100000000     0.278510000000     0          
C6       C      0.446110000000     0.648600000000     0.303890000000     0          
C7       C      0.425080000000     0.653100000000     0.324920000000     0          
C8       C      0.399670000000     0.656300000000     0.350330000000     0          
F1       F      0.841940000000     0.107620000000     0.559730000000     0          
O1       O      0.874470000000     0.326450000000     0.464270000000     0          
C3       C      0.865030000000     0.236550000000     0.470730000000     0          
H1       H      0.867000000000     0.230700000000     0.448200000000     0          
C4       C      0.859800000000     0.212200000000     0.494560000000     0          
H2       H      0.858100000000     0.189800000000     0.488300000000     0          
C9       C      0.842830000000     0.116580000000     0.592790000000     0          
F1       F      0.392380000000     0.658060000000     0.440270000000     0          
O1       O      0.173550000000     0.625530000000     0.535730000000     0          
C3       C      0.263450000000     0.634970000000     0.529270000000     0          
H1       H      0.269300000000     0.633000000000     0.551800000000     0          
C4       C      0.287800000000     0.640200000000     0.505440000000     0          
H2       H      0.310200000000     0.641900000000     0.511700000000     0          
C9       C      0.383420000000     0.657170000000     0.407210000000     0          
F1       F      0.841940000000     0.142380000000     0.690270000000     0          
O1       O      0.874470000000     0.923550000000     0.785730000000     0          
C3       C      0.865030000000     0.013450000000     0.779270000000     0          
H1       H      0.867000000000     0.019300000000     0.801800000000     0          
C4       C      0.859800000000     0.037800000000     0.755440000000     0          
H2       H      0.858100000000     0.060200000000     0.761700000000     0          
C9       C      0.842830000000     0.133420000000     0.657210000000     0          
F1       F      0.357620000000     0.591940000000     0.940270000000     0          
O1       O      0.576450000000     0.624470000000     0.035730000000     0          
C3       C      0.486550000000     0.615030000000     0.029270000000     0          
H1       H      0.480700000000     0.617000000000     0.051800000000     0          
C4       C      0.462200000000     0.609800000000     0.005440000000     0          
H2       H      0.439800000000     0.608100000000     0.011700000000     0          
C9       C      0.366580000000     0.592830000000     0.907210000000     0          
C1       C      0.546330000000     0.622240000000     0.046330000000     0          
C2       C      0.519760000000     0.617470000000     0.019760000000     0          
C5       C      0.471490000000     0.606900000000     0.971490000000     0          
C6       C      0.446110000000     0.601400000000     0.946110000000     0          
C7       C      0.425080000000     0.596900000000     0.925080000000     0          
C8       C      0.399670000000     0.593700000000     0.899670000000     0          
F1       F      0.908060000000     0.107620000000     0.190270000000     0          
O1       O      0.875530000000     0.326450000000     0.285730000000     0          
C3       C      0.884970000000     0.236550000000     0.279270000000     0          
H1       H      0.883000000000     0.230700000000     0.301800000000     0          
C4       C      0.890200000000     0.212200000000     0.255440000000     0          
H2       H      0.891900000000     0.189800000000     0.261700000000     0          
C9       C      0.907170000000     0.116580000000     0.157210000000     0          
C1       C      0.877760000000     0.296330000000     0.296330000000     0          
C2       C      0.882530000000     0.269760000000     0.269760000000     0          
C5       C      0.893100000000     0.221490000000     0.221490000000     0          
C6       C      0.898600000000     0.196110000000     0.196110000000     0          
C7       C      0.903100000000     0.175080000000     0.175080000000     0          
C8       C      0.906300000000     0.149670000000     0.149670000000     0          
F1       F      0.809730000000     0.892380000000     0.091940000000     0          
O1       O      0.714270000000     0.673550000000     0.124470000000     0          
C3       C      0.720730000000     0.763450000000     0.115030000000     0          
H1       H      0.698200000000     0.769300000000     0.117000000000     0          
C4       C      0.744560000000     0.787800000000     0.109800000000     0          
H2       H      0.738300000000     0.810200000000     0.108100000000     0          
C9       C      0.842790000000     0.883420000000     0.092830000000     0          
F1       F      0.309730000000     0.857620000000     0.158060000000     0          
O1       O      0.214270000000     0.076450000000     0.125530000000     0          
C3       C      0.220730000000     0.986550000000     0.134970000000     0          
H1       H      0.198200000000     0.980700000000     0.133000000000     0          
C4       C      0.244560000000     0.962200000000     0.140200000000     0          
H2       H      0.238300000000     0.939800000000     0.141900000000     0          
C9       C      0.342790000000     0.866580000000     0.157170000000     0          
F1       F      0.642380000000     0.059730000000     0.408060000000     0          
O1       O      0.423550000000     0.964270000000     0.375530000000     0          
C3       C      0.513450000000     0.970730000000     0.384970000000     0          
H1       H      0.519300000000     0.948200000000     0.383000000000     0          
C4       C      0.537800000000     0.994560000000     0.390200000000     0          
H2       H      0.560200000000     0.988300000000     0.391900000000     0          
C9       C      0.633420000000     0.092790000000     0.407170000000     0          
C1       C      0.453670000000     0.953670000000     0.377760000000     0          
C2       C      0.480240000000     0.980240000000     0.382530000000     0          
C5       C      0.528510000000     0.028510000000     0.393100000000     0          
C6       C      0.553890000000     0.053890000000     0.398600000000     0          
C7       C      0.574920000000     0.074920000000     0.403100000000     0          
C8       C      0.600330000000     0.100330000000     0.406300000000     0          
F1       F      0.440270000000     0.392380000000     0.658060000000     0          
O1       O      0.535730000000     0.173550000000     0.625530000000     0          
C3       C      0.529270000000     0.263450000000     0.634970000000     0          
H1       H      0.551800000000     0.269300000000     0.633000000000     0          
C4       C      0.505440000000     0.287800000000     0.640200000000     0          
H2       H      0.511700000000     0.310200000000     0.641900000000     0          
C9       C      0.407210000000     0.383420000000     0.657170000000     0          
Zr1      Zr     0.562920000000     0.125000000000     0.625000000000     0          
C1       C      0.546330000000     0.203670000000     0.627760000000     0          
C2       C      0.519760000000     0.230240000000     0.632530000000     0          
C5       C      0.471490000000     0.278510000000     0.643100000000     0          
C6       C      0.446110000000     0.303890000000     0.648600000000     0          
C7       C      0.425080000000     0.324920000000     0.653100000000     0          
C8       C      0.399670000000     0.350330000000     0.656300000000     0          
F1       F      0.607620000000     0.190270000000     0.408060000000     0          
O1       O      0.826450000000     0.285730000000     0.375530000000     0          
C3       C      0.736550000000     0.279270000000     0.384970000000     0          
H1       H      0.730700000000     0.301800000000     0.383000000000     0          
C4       C      0.712200000000     0.255440000000     0.390200000000     0          
H2       H      0.689800000000     0.261700000000     0.391900000000     0          
C9       C      0.616580000000     0.157210000000     0.407170000000     0          
F1       F      0.440270000000     0.357620000000     0.091940000000     0          
O1       O      0.535730000000     0.576450000000     0.124470000000     0          
C3       C      0.529270000000     0.486550000000     0.115030000000     0          
H1       H      0.551800000000     0.480700000000     0.117000000000     0          
C4       C      0.505440000000     0.462200000000     0.109800000000     0          
H2       H      0.511700000000     0.439800000000     0.108100000000     0          
C9       C      0.407210000000     0.366580000000     0.092830000000     0          
Zr1      Zr     0.562920000000     0.625000000000     0.125000000000     0          
C1       C      0.546330000000     0.546330000000     0.122240000000     0          
C2       C      0.519760000000     0.519760000000     0.117470000000     0          
C5       C      0.471490000000     0.471490000000     0.106900000000     0          
C6       C      0.446110000000     0.446110000000     0.101400000000     0          
C7       C      0.425080000000     0.425080000000     0.096900000000     0          
C8       C      0.399670000000     0.399670000000     0.093700000000     0          
F1       F      0.642380000000     0.690270000000     0.341940000000     0          
O1       O      0.423550000000     0.785730000000     0.374470000000     0          
C3       C      0.513450000000     0.779270000000     0.365030000000     0          
H1       H      0.519300000000     0.801800000000     0.367000000000     0          
C4       C      0.537800000000     0.755440000000     0.359800000000     0          
H2       H      0.560200000000     0.761700000000     0.358100000000     0          
C9       C      0.633420000000     0.657210000000     0.342830000000     0          
C1       C      0.453670000000     0.796330000000     0.372240000000     0          
C2       C      0.480240000000     0.769760000000     0.367470000000     0          
C5       C      0.528510000000     0.721490000000     0.356900000000     0          
C6       C      0.553890000000     0.696110000000     0.351400000000     0          
C7       C      0.574920000000     0.675080000000     0.346900000000     0          
C8       C      0.600330000000     0.649670000000     0.343700000000     0          
F1       F      0.107620000000     0.559730000000     0.841940000000     0          
O1       O      0.326450000000     0.464270000000     0.874470000000     0          
C3       C      0.236550000000     0.470730000000     0.865030000000     0          
H1       H      0.230700000000     0.448200000000     0.867000000000     0          
C4       C      0.212200000000     0.494560000000     0.859800000000     0          
H2       H      0.189800000000     0.488300000000     0.858100000000     0          
C9       C      0.116580000000     0.592790000000     0.842830000000     0          
F1       F      0.908060000000     0.690270000000     0.607620000000     0          
O1       O      0.875530000000     0.785730000000     0.826450000000     0          
C3       C      0.884970000000     0.779270000000     0.736550000000     0          
H1       H      0.883000000000     0.801800000000     0.730700000000     0          
C4       C      0.890200000000     0.755440000000     0.712200000000     0          
H2       H      0.891900000000     0.761700000000     0.689800000000     0          
C9       C      0.907170000000     0.657210000000     0.616580000000     0          
C1       C      0.877760000000     0.796330000000     0.796330000000     0          
C2       C      0.882530000000     0.769760000000     0.769760000000     0          
C5       C      0.893100000000     0.721490000000     0.721490000000     0          
C6       C      0.898600000000     0.696110000000     0.696110000000     0          
C7       C      0.903100000000     0.675080000000     0.675080000000     0          
C8       C      0.906300000000     0.649670000000     0.649670000000     0          
F1       F      0.809730000000     0.158060000000     0.357620000000     0          
O1       O      0.714270000000     0.125530000000     0.576450000000     0          
C3       C      0.720730000000     0.134970000000     0.486550000000     0          
H1       H      0.698200000000     0.133000000000     0.480700000000     0          
C4       C      0.744560000000     0.140200000000     0.462200000000     0          
H2       H      0.738300000000     0.141900000000     0.439800000000     0          
C9       C      0.842790000000     0.157170000000     0.366580000000     0          
F1       F      0.341940000000     0.059730000000     0.107620000000     0          
O1       O      0.374470000000     0.964270000000     0.326450000000     0          
C3       C      0.365030000000     0.970730000000     0.236550000000     0          
H1       H      0.367000000000     0.948200000000     0.230700000000     0          
C4       C      0.359800000000     0.994560000000     0.212200000000     0          
H2       H      0.358100000000     0.988300000000     0.189800000000     0          
C9       C      0.342830000000     0.092790000000     0.116580000000     0          
F1       F      0.440270000000     0.591940000000     0.857620000000     0          
O1       O      0.535730000000     0.624470000000     0.076450000000     0          
C3       C      0.529270000000     0.615030000000     0.986550000000     0          
H1       H      0.551800000000     0.617000000000     0.980700000000     0          
C4       C      0.505440000000     0.609800000000     0.962200000000     0          
H2       H      0.511700000000     0.608100000000     0.939800000000     0          
C9       C      0.407210000000     0.592830000000     0.866580000000     0          
F1       F      0.908060000000     0.059730000000     0.142380000000     0          
O1       O      0.875530000000     0.964270000000     0.923550000000     0          
C3       C      0.884970000000     0.970730000000     0.013450000000     0          
H1       H      0.883000000000     0.948200000000     0.019300000000     0          
C4       C      0.890200000000     0.994560000000     0.037800000000     0          
H2       H      0.891900000000     0.988300000000     0.060200000000     0          
C9       C      0.907170000000     0.092790000000     0.133420000000     0          
F1       F      0.440270000000     0.158060000000     0.892380000000     0          
O1       O      0.535730000000     0.125530000000     0.673550000000     0          
C3       C      0.529270000000     0.134970000000     0.763450000000     0          
H1       H      0.551800000000     0.133000000000     0.769300000000     0          
C4       C      0.505440000000     0.140200000000     0.787800000000     0          
H2       H      0.511700000000     0.141900000000     0.810200000000     0          
C9       C      0.407210000000     0.157170000000     0.883420000000     0          
C1       C      0.546330000000     0.127760000000     0.703670000000     0          
C2       C      0.519760000000     0.132530000000     0.730240000000     0          
C5       C      0.471490000000     0.143100000000     0.778510000000     0          
C6       C      0.446110000000     0.148600000000     0.803890000000     0          
C7       C      0.425080000000     0.153100000000     0.824920000000     0          
C8       C      0.399670000000     0.156300000000     0.850330000000     0          
F1       F      0.341940000000     0.690270000000     0.642380000000     0          
O1       O      0.374470000000     0.785730000000     0.423550000000     0          
C3       C      0.365030000000     0.779270000000     0.513450000000     0          
H1       H      0.367000000000     0.801800000000     0.519300000000     0          
C4       C      0.359800000000     0.755440000000     0.537800000000     0          
H2       H      0.358100000000     0.761700000000     0.560200000000     0          
C9       C      0.342830000000     0.657210000000     0.633420000000     0          
F1       F      0.809730000000     0.591940000000     0.392380000000     0          
O1       O      0.714270000000     0.624470000000     0.173550000000     0          
C3       C      0.720730000000     0.615030000000     0.263450000000     0          
H1       H      0.698200000000     0.617000000000     0.269300000000     0          
C4       C      0.744560000000     0.609800000000     0.287800000000     0          
H2       H      0.738300000000     0.608100000000     0.310200000000     0          
C9       C      0.842790000000     0.592830000000     0.383420000000     0          
F1       F      0.607620000000     0.408060000000     0.190270000000     0          
O1       O      0.826450000000     0.375530000000     0.285730000000     0          
C3       C      0.736550000000     0.384970000000     0.279270000000     0          
H1       H      0.730700000000     0.383000000000     0.301800000000     0          
C4       C      0.712200000000     0.390200000000     0.255440000000     0          
H2       H      0.689800000000     0.391900000000     0.261700000000     0          
C9       C      0.616580000000     0.407170000000     0.157210000000     0          
F1       F      0.091940000000     0.857620000000     0.940270000000     0          
O1       O      0.124470000000     0.076450000000     0.035730000000     0          
C3       C      0.115030000000     0.986550000000     0.029270000000     0          
H1       H      0.117000000000     0.980700000000     0.051800000000     0          
C4       C      0.109800000000     0.962200000000     0.005440000000     0          
H2       H      0.108100000000     0.939800000000     0.011700000000     0          
C9       C      0.092830000000     0.866580000000     0.907210000000     0          
F1       F      0.642380000000     0.341940000000     0.690270000000     0          
O1       O      0.423550000000     0.374470000000     0.785730000000     0          
C3       C      0.513450000000     0.365030000000     0.779270000000     0          
H1       H      0.519300000000     0.367000000000     0.801800000000     0          
C4       C      0.537800000000     0.359800000000     0.755440000000     0          
H2       H      0.560200000000     0.358100000000     0.761700000000     0          
C9       C      0.633420000000     0.342830000000     0.657210000000     0          
C1       C      0.453670000000     0.372240000000     0.796330000000     0          
C2       C      0.480240000000     0.367470000000     0.769760000000     0          
C5       C      0.528510000000     0.356900000000     0.721490000000     0          
C6       C      0.553890000000     0.351400000000     0.696110000000     0          
C7       C      0.574920000000     0.346900000000     0.675080000000     0          
C8       C      0.600330000000     0.343700000000     0.649670000000     0          
F1       F      0.158060000000     0.892380000000     0.440270000000     0          
O1       O      0.125530000000     0.673550000000     0.535730000000     0          
C3       C      0.134970000000     0.763450000000     0.529270000000     0          
H1       H      0.133000000000     0.769300000000     0.551800000000     0          
C4       C      0.140200000000     0.787800000000     0.505440000000     0          
H2       H      0.141900000000     0.810200000000     0.511700000000     0          
C9       C      0.157170000000     0.883420000000     0.407210000000     0          
F1       F      0.607620000000     0.341940000000     0.559730000000     0          
O1       O      0.826450000000     0.374470000000     0.464270000000     0          
C3       C      0.736550000000     0.365030000000     0.470730000000     0          
H1       H      0.730700000000     0.367000000000     0.448200000000     0          
C4       C      0.712200000000     0.359800000000     0.494560000000     0          
H2       H      0.689800000000     0.358100000000     0.488300000000     0          
C9       C      0.616580000000     0.342830000000     0.592790000000     0          
F1       F      0.158060000000     0.857620000000     0.309730000000     0          
O1       O      0.125530000000     0.076450000000     0.214270000000     0          
C3       C      0.134970000000     0.986550000000     0.220730000000     0          
H1       H      0.133000000000     0.980700000000     0.198200000000     0          
C4       C      0.140200000000     0.962200000000     0.244560000000     0          
H2       H      0.141900000000     0.939800000000     0.238300000000     0          
C9       C      0.157170000000     0.866580000000     0.342790000000     0          
F1       F      0.642380000000     0.408060000000     0.059730000000     0          
O1       O      0.423550000000     0.375530000000     0.964270000000     0          
C3       C      0.513450000000     0.384970000000     0.970730000000     0          
H1       H      0.519300000000     0.383000000000     0.948200000000     0          
C4       C      0.537800000000     0.390200000000     0.994560000000     0          
H2       H      0.560200000000     0.391900000000     0.988300000000     0          
C9       C      0.633420000000     0.407170000000     0.092790000000     0          
F1       F      0.091940000000     0.892380000000     0.809730000000     0          
O1       O      0.124470000000     0.673550000000     0.714270000000     0          
C3       C      0.115030000000     0.763450000000     0.720730000000     0          
H1       H      0.117000000000     0.769300000000     0.698200000000     0          
C4       C      0.109800000000     0.787800000000     0.744560000000     0          
H2       H      0.108100000000     0.810200000000     0.738300000000     0          
C9       C      0.092830000000     0.883420000000     0.842790000000     0          
C1       C      0.122240000000     0.703670000000     0.703670000000     0          
C2       C      0.117470000000     0.730240000000     0.730240000000     0          
C5       C      0.106900000000     0.778510000000     0.778510000000     0          
C6       C      0.101400000000     0.803890000000     0.803890000000     0          
C7       C      0.096900000000     0.824920000000     0.824920000000     0          
C8       C      0.093700000000     0.850330000000     0.850330000000     0          
F1       F      0.190270000000     0.107620000000     0.908060000000     0          
O1       O      0.285730000000     0.326450000000     0.875530000000     0          
C3       C      0.279270000000     0.236550000000     0.884970000000     0          
H1       H      0.301800000000     0.230700000000     0.883000000000     0          
C4       C      0.255440000000     0.212200000000     0.890200000000     0          
H2       H      0.261700000000     0.189800000000     0.891900000000     0          
C9       C      0.157210000000     0.116580000000     0.907170000000     0          
F1       F      0.690270000000     0.142380000000     0.841940000000     0          
O1       O      0.785730000000     0.923550000000     0.874470000000     0          
C3       C      0.779270000000     0.013450000000     0.865030000000     0          
H1       H      0.801800000000     0.019300000000     0.867000000000     0          
C4       C      0.755440000000     0.037800000000     0.859800000000     0          
H2       H      0.761700000000     0.060200000000     0.858100000000     0          
C9       C      0.657210000000     0.133420000000     0.842830000000     0          
F1       F      0.357620000000     0.940270000000     0.591940000000     0          
O1       O      0.576450000000     0.035730000000     0.624470000000     0          
C3       C      0.486550000000     0.029270000000     0.615030000000     0          
H1       H      0.480700000000     0.051800000000     0.617000000000     0          
C4       C      0.462200000000     0.005440000000     0.609800000000     0          
H2       H      0.439800000000     0.011700000000     0.608100000000     0          
C9       C      0.366580000000     0.907210000000     0.592830000000     0          
C1       C      0.546330000000     0.046330000000     0.622240000000     0          
C2       C      0.519760000000     0.019760000000     0.617470000000     0          
C5       C      0.471490000000     0.971490000000     0.606900000000     0          
C6       C      0.446110000000     0.946110000000     0.601400000000     0          
C7       C      0.425080000000     0.925080000000     0.596900000000     0          
C8       C      0.399670000000     0.899670000000     0.593700000000     0          
F1       F      0.559730000000     0.607620000000     0.341940000000     0          
O1       O      0.464270000000     0.826450000000     0.374470000000     0          
C3       C      0.470730000000     0.736550000000     0.365030000000     0          
H1       H      0.448200000000     0.730700000000     0.367000000000     0          
C4       C      0.494560000000     0.712200000000     0.359800000000     0          
H2       H      0.488300000000     0.689800000000     0.358100000000     0          
C9       C      0.592790000000     0.616580000000     0.342830000000     0          
F1       F      0.392380000000     0.809730000000     0.591940000000     0          
O1       O      0.173550000000     0.714270000000     0.624470000000     0          
C3       C      0.263450000000     0.720730000000     0.615030000000     0          
H1       H      0.269300000000     0.698200000000     0.617000000000     0          
C4       C      0.287800000000     0.744560000000     0.609800000000     0          
H2       H      0.310200000000     0.738300000000     0.608100000000     0          
C9       C      0.383420000000     0.842790000000     0.592830000000     0          
F1       F      0.559730000000     0.642380000000     0.908060000000     0          
O1       O      0.464270000000     0.423550000000     0.875530000000     0          
C3       C      0.470730000000     0.513450000000     0.884970000000     0          
H1       H      0.448200000000     0.519300000000     0.883000000000     0          
C4       C      0.494560000000     0.537800000000     0.890200000000     0          
H2       H      0.488300000000     0.560200000000     0.891900000000     0          
C9       C      0.592790000000     0.633420000000     0.907170000000     0          
C1       C      0.453670000000     0.453670000000     0.877760000000     0          
C2       C      0.480240000000     0.480240000000     0.882530000000     0          
C5       C      0.528510000000     0.528510000000     0.893100000000     0          
C6       C      0.553890000000     0.553890000000     0.898600000000     0          
C7       C      0.574920000000     0.574920000000     0.903100000000     0          
C8       C      0.600330000000     0.600330000000     0.906300000000     0          
F1       F      0.357620000000     0.309730000000     0.658060000000     0          
O1       O      0.576450000000     0.214270000000     0.625530000000     0          
C3       C      0.486550000000     0.220730000000     0.634970000000     0          
H1       H      0.480700000000     0.198200000000     0.633000000000     0          
C4       C      0.462200000000     0.244560000000     0.640200000000     0          
H2       H      0.439800000000     0.238300000000     0.641900000000     0          
C9       C      0.366580000000     0.342790000000     0.657170000000     0          
F1       F      0.892380000000     0.440270000000     0.158060000000     0          
O1       O      0.673550000000     0.535730000000     0.125530000000     0          
C3       C      0.763450000000     0.529270000000     0.134970000000     0          
H1       H      0.769300000000     0.551800000000     0.133000000000     0          
C4       C      0.787800000000     0.505440000000     0.140200000000     0          
H2       H      0.810200000000     0.511700000000     0.141900000000     0          
C9       C      0.883420000000     0.407210000000     0.157170000000     0          
F1       F      0.091940000000     0.809730000000     0.892380000000     0          
O1       O      0.124470000000     0.714270000000     0.673550000000     0          
C3       C      0.115030000000     0.720730000000     0.763450000000     0          
H1       H      0.117000000000     0.698200000000     0.769300000000     0          
C4       C      0.109800000000     0.744560000000     0.787800000000     0          
H2       H      0.108100000000     0.738300000000     0.810200000000     0          
C9       C      0.092830000000     0.842790000000     0.883420000000     0          
F1       F      0.190270000000     0.341940000000     0.142380000000     0          
O1       O      0.285730000000     0.374470000000     0.923550000000     0          
C3       C      0.279270000000     0.365030000000     0.013450000000     0          
H1       H      0.301800000000     0.367000000000     0.019300000000     0          
C4       C      0.255440000000     0.359800000000     0.037800000000     0          
H2       H      0.261700000000     0.358100000000     0.060200000000     0          
C9       C      0.157210000000     0.342830000000     0.133420000000     0          
F1       F      0.658060000000     0.440270000000     0.392380000000     0          
O1       O      0.625530000000     0.535730000000     0.173550000000     0          
C3       C      0.634970000000     0.529270000000     0.263450000000     0          
H1       H      0.633000000000     0.551800000000     0.269300000000     0          
C4       C      0.640200000000     0.505440000000     0.287800000000     0          
H2       H      0.641900000000     0.511700000000     0.310200000000     0          
C9       C      0.657170000000     0.407210000000     0.383420000000     0          
F1       F      0.559730000000     0.908060000000     0.642380000000     0          
O1       O      0.464270000000     0.875530000000     0.423550000000     0          
C3       C      0.470730000000     0.884970000000     0.513450000000     0          
H1       H      0.448200000000     0.883000000000     0.519300000000     0          
C4       C      0.494560000000     0.890200000000     0.537800000000     0          
H2       H      0.488300000000     0.891900000000     0.560200000000     0          
C9       C      0.592790000000     0.907170000000     0.633420000000     0          
C1       C      0.453670000000     0.877760000000     0.453670000000     0          
C2       C      0.480240000000     0.882530000000     0.480240000000     0          
C5       C      0.528510000000     0.893100000000     0.528510000000     0          
C6       C      0.553890000000     0.898600000000     0.553890000000     0          
C7       C      0.574920000000     0.903100000000     0.574920000000     0          
C8       C      0.600330000000     0.906300000000     0.600330000000     0          
F1       F      0.091940000000     0.440270000000     0.357620000000     0          
O1       O      0.124470000000     0.535730000000     0.576450000000     0          
C3       C      0.115030000000     0.529270000000     0.486550000000     0          
H1       H      0.117000000000     0.551800000000     0.480700000000     0          
C4       C      0.109800000000     0.505440000000     0.462200000000     0          
H2       H      0.108100000000     0.511700000000     0.439800000000     0          
C9       C      0.092830000000     0.407210000000     0.366580000000     0          
C1       C      0.122240000000     0.546330000000     0.546330000000     0          
C2       C      0.117470000000     0.519760000000     0.519760000000     0          
C5       C      0.106900000000     0.471490000000     0.471490000000     0          
C6       C      0.101400000000     0.446110000000     0.446110000000     0          
C7       C      0.096900000000     0.425080000000     0.425080000000     0          
C8       C      0.093700000000     0.399670000000     0.399670000000     0          
F1       F      0.559730000000     0.341940000000     0.607620000000     0          
O1       O      0.464270000000     0.374470000000     0.826450000000     0          
C3       C      0.470730000000     0.365030000000     0.736550000000     0          
H1       H      0.448200000000     0.367000000000     0.730700000000     0          
C4       C      0.494560000000     0.359800000000     0.712200000000     0          
H2       H      0.488300000000     0.358100000000     0.689800000000     0          
C9       C      0.592790000000     0.342830000000     0.616580000000     0          
F1       F      0.658060000000     0.809730000000     0.857620000000     0          
O1       O      0.625530000000     0.714270000000     0.076450000000     0          
C3       C      0.634970000000     0.720730000000     0.986550000000     0          
H1       H      0.633000000000     0.698200000000     0.980700000000     0          
C4       C      0.640200000000     0.744560000000     0.962200000000     0          
H2       H      0.641900000000     0.738300000000     0.939800000000     0          
C9       C      0.657170000000     0.842790000000     0.866580000000     0          
F1       F      0.190270000000     0.908060000000     0.107620000000     0          
O1       O      0.285730000000     0.875530000000     0.326450000000     0          
C3       C      0.279270000000     0.884970000000     0.236550000000     0          
H1       H      0.301800000000     0.883000000000     0.230700000000     0          
C4       C      0.255440000000     0.890200000000     0.212200000000     0          
H2       H      0.261700000000     0.891900000000     0.189800000000     0          
C9       C      0.157210000000     0.907170000000     0.116580000000     0          
F1       F      0.392380000000     0.091940000000     0.309730000000     0          
O1       O      0.173550000000     0.124470000000     0.214270000000     0          
C3       C      0.263450000000     0.115030000000     0.220730000000     0          
H1       H      0.269300000000     0.117000000000     0.198200000000     0          
C4       C      0.287800000000     0.109800000000     0.244560000000     0          
H2       H      0.310200000000     0.108100000000     0.238300000000     0          
C9       C      0.383420000000     0.092830000000     0.342790000000     0          
F1       F      0.908060000000     0.642380000000     0.559730000000     0          
O1       O      0.875530000000     0.423550000000     0.464270000000     0          
C3       C      0.884970000000     0.513450000000     0.470730000000     0          
H1       H      0.883000000000     0.519300000000     0.448200000000     0          
C4       C      0.890200000000     0.537800000000     0.494560000000     0          
H2       H      0.891900000000     0.560200000000     0.488300000000     0          
C9       C      0.907170000000     0.633420000000     0.592790000000     0          
C1       C      0.877760000000     0.453670000000     0.453670000000     0          
C2       C      0.882530000000     0.480240000000     0.480240000000     0          
C5       C      0.893100000000     0.528510000000     0.528510000000     0          
C6       C      0.898600000000     0.553890000000     0.553890000000     0          
C7       C      0.903100000000     0.574920000000     0.574920000000     0          
C8       C      0.906300000000     0.600330000000     0.600330000000     0          
F1       F      0.357620000000     0.158060000000     0.809730000000     0          
O1       O      0.576450000000     0.125530000000     0.714270000000     0          
C3       C      0.486550000000     0.134970000000     0.720730000000     0          
H1       H      0.480700000000     0.133000000000     0.698200000000     0          
C4       C      0.462200000000     0.140200000000     0.744560000000     0          
H2       H      0.439800000000     0.141900000000     0.738300000000     0          
C9       C      0.366580000000     0.157170000000     0.842790000000     0          
F1       F      0.841940000000     0.607620000000     0.059730000000     0          
O1       O      0.874470000000     0.826450000000     0.964270000000     0          
C3       C      0.865030000000     0.736550000000     0.970730000000     0          
H1       H      0.867000000000     0.730700000000     0.948200000000     0          
C4       C      0.859800000000     0.712200000000     0.994560000000     0          
H2       H      0.858100000000     0.689800000000     0.988300000000     0          
C9       C      0.842830000000     0.616580000000     0.092790000000     0          
F1       F      0.392380000000     0.158060000000     0.940270000000     0          
O1       O      0.173550000000     0.125530000000     0.035730000000     0          
C3       C      0.263450000000     0.134970000000     0.029270000000     0          
H1       H      0.269300000000     0.133000000000     0.051800000000     0          
C4       C      0.287800000000     0.140200000000     0.005440000000     0          
H2       H      0.310200000000     0.141900000000     0.011700000000     0          
C9       C      0.383420000000     0.157170000000     0.907210000000     0          
F1       F      0.841940000000     0.642380000000     0.190270000000     0          
O1       O      0.874470000000     0.423550000000     0.285730000000     0          
C3       C      0.865030000000     0.513450000000     0.279270000000     0          
H1       H      0.867000000000     0.519300000000     0.301800000000     0          
C4       C      0.859800000000     0.537800000000     0.255440000000     0          
H2       H      0.858100000000     0.560200000000     0.261700000000     0          
C9       C      0.842830000000     0.633420000000     0.157210000000     0          
F1       F      0.357620000000     0.091940000000     0.440270000000     0          
O1       O      0.576450000000     0.124470000000     0.535730000000     0          
C3       C      0.486550000000     0.115030000000     0.529270000000     0          
H1       H      0.480700000000     0.117000000000     0.551800000000     0          
C4       C      0.462200000000     0.109800000000     0.505440000000     0          
H2       H      0.439800000000     0.108100000000     0.511700000000     0          
C9       C      0.366580000000     0.092830000000     0.407210000000     0          
C1       C      0.546330000000     0.122240000000     0.546330000000     0          
C2       C      0.519760000000     0.117470000000     0.519760000000     0          
C5       C      0.471490000000     0.106900000000     0.471490000000     0          
C6       C      0.446110000000     0.101400000000     0.446110000000     0          
C7       C      0.425080000000     0.096900000000     0.425080000000     0          
C8       C      0.399670000000     0.093700000000     0.399670000000     0          
F1       F      0.908060000000     0.607620000000     0.690270000000     0          
O1       O      0.875530000000     0.826450000000     0.785730000000     0          
C3       C      0.884970000000     0.736550000000     0.779270000000     0          
H1       H      0.883000000000     0.730700000000     0.801800000000     0          
C4       C      0.890200000000     0.712200000000     0.755440000000     0          
H2       H      0.891900000000     0.689800000000     0.761700000000     0          
C9       C      0.907170000000     0.616580000000     0.657210000000     0          
F1       F      0.809730000000     0.392380000000     0.591940000000     0          
O1       O      0.714270000000     0.173550000000     0.624470000000     0          
C3       C      0.720730000000     0.263450000000     0.615030000000     0          
H1       H      0.698200000000     0.269300000000     0.617000000000     0          
C4       C      0.744560000000     0.287800000000     0.609800000000     0          
H2       H      0.738300000000     0.310200000000     0.608100000000     0          
C9       C      0.842790000000     0.383420000000     0.592830000000     0          
F1       F      0.309730000000     0.357620000000     0.658060000000     0          
O1       O      0.214270000000     0.576450000000     0.625530000000     0          
C3       C      0.220730000000     0.486550000000     0.634970000000     0          
H1       H      0.198200000000     0.480700000000     0.633000000000     0          
C4       C      0.244560000000     0.462200000000     0.640200000000     0          
H2       H      0.238300000000     0.439800000000     0.641900000000     0          
C9       C      0.342790000000     0.366580000000     0.657170000000     0          
F1       F      0.642380000000     0.559730000000     0.908060000000     0          
O1       O      0.423550000000     0.464270000000     0.875530000000     0          
C3       C      0.513450000000     0.470730000000     0.884970000000     0          
H1       H      0.519300000000     0.448200000000     0.883000000000     0          
C4       C      0.537800000000     0.494560000000     0.890200000000     0          
H2       H      0.560200000000     0.488300000000     0.891900000000     0          
C9       C      0.633420000000     0.592790000000     0.907170000000     0          
F1       F      0.440270000000     0.892380000000     0.158060000000     0          
O1       O      0.535730000000     0.673550000000     0.125530000000     0          
C3       C      0.529270000000     0.763450000000     0.134970000000     0          
H1       H      0.551800000000     0.769300000000     0.133000000000     0          
C4       C      0.505440000000     0.787800000000     0.140200000000     0          
H2       H      0.511700000000     0.810200000000     0.141900000000     0          
C9       C      0.407210000000     0.883420000000     0.157170000000     0          
C1       C      0.546330000000     0.703670000000     0.127760000000     0          
C2       C      0.519760000000     0.730240000000     0.132530000000     0          
C5       C      0.471490000000     0.778510000000     0.143100000000     0          
C6       C      0.446110000000     0.803890000000     0.148600000000     0          
C7       C      0.425080000000     0.824920000000     0.153100000000     0          
C8       C      0.399670000000     0.850330000000     0.156300000000     0          
F1       F      0.607620000000     0.690270000000     0.908060000000     0          
O1       O      0.826450000000     0.785730000000     0.875530000000     0          
C3       C      0.736550000000     0.779270000000     0.884970000000     0          
H1       H      0.730700000000     0.801800000000     0.883000000000     0          
C4       C      0.712200000000     0.755440000000     0.890200000000     0          
H2       H      0.689800000000     0.761700000000     0.891900000000     0          
C9       C      0.616580000000     0.657210000000     0.907170000000     0          
F1       F      0.440270000000     0.857620000000     0.591940000000     0          
O1       O      0.535730000000     0.076450000000     0.624470000000     0          
C3       C      0.529270000000     0.986550000000     0.615030000000     0          
H1       H      0.551800000000     0.980700000000     0.617000000000     0          
C4       C      0.505440000000     0.962200000000     0.609800000000     0          
H2       H      0.511700000000     0.939800000000     0.608100000000     0          
C9       C      0.407210000000     0.866580000000     0.592830000000     0          
F1       F      0.642380000000     0.190270000000     0.841940000000     0          
O1       O      0.423550000000     0.285730000000     0.874470000000     0          
C3       C      0.513450000000     0.279270000000     0.865030000000     0          
H1       H      0.519300000000     0.301800000000     0.867000000000     0          
C4       C      0.537800000000     0.255440000000     0.859800000000     0          
H2       H      0.560200000000     0.261700000000     0.858100000000     0          
C9       C      0.633420000000     0.157210000000     0.842830000000     0          
C1       C      0.453670000000     0.296330000000     0.872240000000     0          
C2       C      0.480240000000     0.269760000000     0.867470000000     0          
C5       C      0.528510000000     0.221490000000     0.856900000000     0          
C6       C      0.553890000000     0.196110000000     0.851400000000     0          
C7       C      0.574920000000     0.175080000000     0.846900000000     0          
C8       C      0.600330000000     0.149670000000     0.843700000000     0          
F1       F      0.107620000000     0.059730000000     0.341940000000     0          
O1       O      0.326450000000     0.964270000000     0.374470000000     0          
C3       C      0.236550000000     0.970730000000     0.365030000000     0          
H1       H      0.230700000000     0.948200000000     0.367000000000     0          
C4       C      0.212200000000     0.994560000000     0.359800000000     0          
H2       H      0.189800000000     0.988300000000     0.358100000000     0          
C9       C      0.116580000000     0.092790000000     0.342830000000     0          
F1       F      0.908060000000     0.190270000000     0.107620000000     0          
O1       O      0.875530000000     0.285730000000     0.326450000000     0          
C3       C      0.884970000000     0.279270000000     0.236550000000     0          
H1       H      0.883000000000     0.301800000000     0.230700000000     0          
C4       C      0.890200000000     0.255440000000     0.212200000000     0          
H2       H      0.891900000000     0.261700000000     0.189800000000     0          
C9       C      0.907170000000     0.157210000000     0.116580000000     0          
F1       F      0.809730000000     0.658060000000     0.857620000000     0          
O1       O      0.714270000000     0.625530000000     0.076450000000     0          
C3       C      0.720730000000     0.634970000000     0.986550000000     0          
H1       H      0.698200000000     0.633000000000     0.980700000000     0          
C4       C      0.744560000000     0.640200000000     0.962200000000     0          
H2       H      0.738300000000     0.641900000000     0.939800000000     0          
C9       C      0.842790000000     0.657170000000     0.866580000000     0          
F1       F      0.341940000000     0.559730000000     0.607620000000     0          
O1       O      0.374470000000     0.464270000000     0.826450000000     0          
C3       C      0.365030000000     0.470730000000     0.736550000000     0          
H1       H      0.367000000000     0.448200000000     0.730700000000     0          
C4       C      0.359800000000     0.494560000000     0.712200000000     0          
H2       H      0.358100000000     0.488300000000     0.689800000000     0          
C9       C      0.342830000000     0.592790000000     0.616580000000     0          
F1       F      0.440270000000     0.091940000000     0.357620000000     0          
O1       O      0.535730000000     0.124470000000     0.576450000000     0          
C3       C      0.529270000000     0.115030000000     0.486550000000     0          
H1       H      0.551800000000     0.117000000000     0.480700000000     0          
C4       C      0.505440000000     0.109800000000     0.462200000000     0          
H2       H      0.511700000000     0.108100000000     0.439800000000     0          
C9       C      0.407210000000     0.092830000000     0.366580000000     0          
F1       F      0.908060000000     0.559730000000     0.642380000000     0          
O1       O      0.875530000000     0.464270000000     0.423550000000     0          
C3       C      0.884970000000     0.470730000000     0.513450000000     0          
H1       H      0.883000000000     0.448200000000     0.519300000000     0          
C4       C      0.890200000000     0.494560000000     0.537800000000     0          
H2       H      0.891900000000     0.488300000000     0.560200000000     0          
C9       C      0.907170000000     0.592790000000     0.633420000000     0          
F1       F      0.440270000000     0.658060000000     0.392380000000     0          
O1       O      0.535730000000     0.625530000000     0.173550000000     0          
C3       C      0.529270000000     0.634970000000     0.263450000000     0          
H1       H      0.551800000000     0.633000000000     0.269300000000     0          
C4       C      0.505440000000     0.640200000000     0.287800000000     0          
H2       H      0.511700000000     0.641900000000     0.310200000000     0          
C9       C      0.407210000000     0.657170000000     0.383420000000     0          
F1       F      0.341940000000     0.190270000000     0.142380000000     0          
O1       O      0.374470000000     0.285730000000     0.923550000000     0          
C3       C      0.365030000000     0.279270000000     0.013450000000     0          
H1       H      0.367000000000     0.301800000000     0.019300000000     0          
C4       C      0.359800000000     0.255440000000     0.037800000000     0          
H2       H      0.358100000000     0.261700000000     0.060200000000     0          
C9       C      0.342830000000     0.157210000000     0.133420000000     0          
F1       F      0.809730000000     0.091940000000     0.892380000000     0          
O1       O      0.714270000000     0.124470000000     0.673550000000     0          
C3       C      0.720730000000     0.115030000000     0.763450000000     0          
H1       H      0.698200000000     0.117000000000     0.769300000000     0          
C4       C      0.744560000000     0.109800000000     0.787800000000     0          
H2       H      0.738300000000     0.108100000000     0.810200000000     0          
C9       C      0.842790000000     0.092830000000     0.883420000000     0          
F1       F      0.607620000000     0.908060000000     0.690270000000     0          
O1       O      0.826450000000     0.875530000000     0.785730000000     0          
C3       C      0.736550000000     0.884970000000     0.779270000000     0          
H1       H      0.730700000000     0.883000000000     0.801800000000     0          
C4       C      0.712200000000     0.890200000000     0.755440000000     0          
H2       H      0.689800000000     0.891900000000     0.761700000000     0          
C9       C      0.616580000000     0.907170000000     0.657210000000     0          
F1       F      0.091940000000     0.357620000000     0.440270000000     0          
O1       O      0.124470000000     0.576450000000     0.535730000000     0          
C3       C      0.115030000000     0.486550000000     0.529270000000     0          
H1       H      0.117000000000     0.480700000000     0.551800000000     0          
C4       C      0.109800000000     0.462200000000     0.505440000000     0          
H2       H      0.108100000000     0.439800000000     0.511700000000     0          
C9       C      0.092830000000     0.366580000000     0.407210000000     0          
F1       F      0.642380000000     0.841940000000     0.190270000000     0          
O1       O      0.423550000000     0.874470000000     0.285730000000     0          
C3       C      0.513450000000     0.865030000000     0.279270000000     0          
H1       H      0.519300000000     0.867000000000     0.301800000000     0          
C4       C      0.537800000000     0.859800000000     0.255440000000     0          
H2       H      0.560200000000     0.858100000000     0.261700000000     0          
C9       C      0.633420000000     0.842830000000     0.157210000000     0          
F1       F      0.158060000000     0.392380000000     0.940270000000     0          
O1       O      0.125530000000     0.173550000000     0.035730000000     0          
C3       C      0.134970000000     0.263450000000     0.029270000000     0          
H1       H      0.133000000000     0.269300000000     0.051800000000     0          
C4       C      0.140200000000     0.287800000000     0.005440000000     0          
H2       H      0.141900000000     0.310200000000     0.011700000000     0          
C9       C      0.157170000000     0.383420000000     0.907210000000     0          
F1       F      0.607620000000     0.841940000000     0.059730000000     0          
O1       O      0.826450000000     0.874470000000     0.964270000000     0          
C3       C      0.736550000000     0.865030000000     0.970730000000     0          
H1       H      0.730700000000     0.867000000000     0.948200000000     0          
C4       C      0.712200000000     0.859800000000     0.994560000000     0          
H2       H      0.689800000000     0.858100000000     0.988300000000     0          
C9       C      0.616580000000     0.842830000000     0.092790000000     0          
F1       F      0.158060000000     0.357620000000     0.809730000000     0          
O1       O      0.125530000000     0.576450000000     0.714270000000     0          
C3       C      0.134970000000     0.486550000000     0.720730000000     0          
H1       H      0.133000000000     0.480700000000     0.698200000000     0          
C4       C      0.140200000000     0.462200000000     0.744560000000     0          
H2       H      0.141900000000     0.439800000000     0.738300000000     0          
C9       C      0.157170000000     0.366580000000     0.842790000000     0          
F1       F      0.642380000000     0.908060000000     0.559730000000     0          
O1       O      0.423550000000     0.875530000000     0.464270000000     0          
C3       C      0.513450000000     0.884970000000     0.470730000000     0          
H1       H      0.519300000000     0.883000000000     0.448200000000     0          
C4       C      0.537800000000     0.890200000000     0.494560000000     0          
H2       H      0.560200000000     0.891900000000     0.488300000000     0          
C9       C      0.633420000000     0.907170000000     0.592790000000     0          
F1       F      0.091940000000     0.392380000000     0.309730000000     0          
O1       O      0.124470000000     0.173550000000     0.214270000000     0          
C3       C      0.115030000000     0.263450000000     0.220730000000     0          
H1       H      0.117000000000     0.269300000000     0.198200000000     0          
C4       C      0.109800000000     0.287800000000     0.244560000000     0          
H2       H      0.108100000000     0.310200000000     0.238300000000     0          
C9       C      0.092830000000     0.383420000000     0.342790000000     0          
F1       F      0.190270000000     0.607620000000     0.408060000000     0          
O1       O      0.285730000000     0.826450000000     0.375530000000     0          
C3       C      0.279270000000     0.736550000000     0.384970000000     0          
H1       H      0.301800000000     0.730700000000     0.383000000000     0          
C4       C      0.255440000000     0.712200000000     0.390200000000     0          
H2       H      0.261700000000     0.689800000000     0.391900000000     0          
C9       C      0.157210000000     0.616580000000     0.407170000000     0          
F1       F      0.690270000000     0.642380000000     0.341940000000     0          
O1       O      0.785730000000     0.423550000000     0.374470000000     0          
C3       C      0.779270000000     0.513450000000     0.365030000000     0          
H1       H      0.801800000000     0.519300000000     0.367000000000     0          
C4       C      0.755440000000     0.537800000000     0.359800000000     0          
H2       H      0.761700000000     0.560200000000     0.358100000000     0          
C9       C      0.657210000000     0.633420000000     0.342830000000     0          
F1       F      0.357620000000     0.440270000000     0.091940000000     0          
O1       O      0.576450000000     0.535730000000     0.124470000000     0          
C3       C      0.486550000000     0.529270000000     0.115030000000     0          
H1       H      0.480700000000     0.551800000000     0.117000000000     0          
C4       C      0.462200000000     0.505440000000     0.109800000000     0          
H2       H      0.439800000000     0.511700000000     0.108100000000     0          
C9       C      0.366580000000     0.407210000000     0.092830000000     0          
F1       F      0.559730000000     0.107620000000     0.841940000000     0          
O1       O      0.464270000000     0.326450000000     0.874470000000     0          
C3       C      0.470730000000     0.236550000000     0.865030000000     0          
H1       H      0.448200000000     0.230700000000     0.867000000000     0          
C4       C      0.494560000000     0.212200000000     0.859800000000     0          
H2       H      0.488300000000     0.189800000000     0.858100000000     0          
C9       C      0.592790000000     0.116580000000     0.842830000000     0          
F1       F      0.392380000000     0.309730000000     0.091940000000     0          
O1       O      0.173550000000     0.214270000000     0.124470000000     0          
C3       C      0.263450000000     0.220730000000     0.115030000000     0          
H1       H      0.269300000000     0.198200000000     0.117000000000     0          
C4       C      0.287800000000     0.244560000000     0.109800000000     0          
H2       H      0.310200000000     0.238300000000     0.108100000000     0          
C9       C      0.383420000000     0.342790000000     0.092830000000     0          
F1       F      0.559730000000     0.142380000000     0.408060000000     0          
O1       O      0.464270000000     0.923550000000     0.375530000000     0          
C3       C      0.470730000000     0.013450000000     0.384970000000     0          
H1       H      0.448200000000     0.019300000000     0.383000000000     0          
C4       C      0.494560000000     0.037800000000     0.390200000000     0          
H2       H      0.488300000000     0.060200000000     0.391900000000     0          
C9       C      0.592790000000     0.133420000000     0.407170000000     0          
F1       F      0.357620000000     0.809730000000     0.158060000000     0          
O1       O      0.576450000000     0.714270000000     0.125530000000     0          
C3       C      0.486550000000     0.720730000000     0.134970000000     0          
H1       H      0.480700000000     0.698200000000     0.133000000000     0          
C4       C      0.462200000000     0.744560000000     0.140200000000     0          
H2       H      0.439800000000     0.738300000000     0.141900000000     0          
C9       C      0.366580000000     0.842790000000     0.157170000000     0          
F1       F      0.892380000000     0.940270000000     0.658060000000     0          
O1       O      0.673550000000     0.035730000000     0.625530000000     0          
C3       C      0.763450000000     0.029270000000     0.634970000000     0          
H1       H      0.769300000000     0.051800000000     0.633000000000     0          
C4       C      0.787800000000     0.005440000000     0.640200000000     0          
H2       H      0.810200000000     0.011700000000     0.641900000000     0          
C9       C      0.883420000000     0.907210000000     0.657170000000     0          


