data_GEDXUL

_audit_creation_method RASPA-1.0
_audit_creation_date 2020-11-2
_audit_author_name 'Rocio Bueno-Perez'

_cell_length_a    39.8785
_cell_length_b    39.8785
_cell_length_c    39.8785
_cell_angle_alpha 90
_cell_angle_beta  90
_cell_angle_gamma 90
_cell_volume      63418.6

_symmetry_cell_setting          triclinic
_symmetry_space_group_name_Hall 'P 1'
_symmetry_space_group_name_H-M  'P 1'
_symmetry_Int_Tables_number     1

_symmetry_equiv_pos_as_xyz 'x,y,z'

loop_
_atom_site_label
_atom_site_type_symbol
_atom_site_fract_x
_atom_site_fract_y
_atom_site_fract_z
_atom_site_charge
O1       O      0.576520000000     0.625580000000     0.214300000000     0          
C2       C      0.529110000000     0.636200000000     0.263460000000     0          
H3       H      0.551500000000     0.634700000000     0.269800000000     0          
C4       C      0.504580000000     0.641100000000     0.286940000000     0          
H5       H      0.510700000000     0.643800000000     0.309300000000     0          
C6       C      0.408300000000     0.643700000000     0.383310000000     0          
C7       C      0.440700000000     0.632900000000     0.391600000000     0          
C8       C      0.448800000000     0.622800000000     0.424000000000     0          
H9       H      0.470500000000     0.616100000000     0.429100000000     0          
O10      O      0.576520000000     0.125580000000     0.714300000000     0          
C11      C      0.529110000000     0.136200000000     0.763460000000     0          
H12      H      0.551500000000     0.134700000000     0.769800000000     0          
C13      C      0.504580000000     0.141100000000     0.786940000000     0          
H14      H      0.510700000000     0.143800000000     0.809300000000     0          
C15      C      0.408300000000     0.143700000000     0.883310000000     0          
C16      C      0.440700000000     0.132900000000     0.891600000000     0          
C17      C      0.448800000000     0.122800000000     0.924000000000     0          
H18      H      0.470500000000     0.116100000000     0.929100000000     0          
O19      O      0.076520000000     0.625580000000     0.714300000000     0          
C20      C      0.029110000000     0.636200000000     0.763460000000     0          
H21      H      0.051500000000     0.634700000000     0.769800000000     0          
C22      C      0.004580000000     0.641100000000     0.786940000000     0          
H23      H      0.010700000000     0.643800000000     0.809300000000     0          
C24      C      0.906100000000     0.666900000000     0.881200000000     0          
O25      O      0.076520000000     0.125580000000     0.214300000000     0          
C26      C      0.029110000000     0.136200000000     0.263460000000     0          
H27      H      0.051500000000     0.134700000000     0.269800000000     0          
C28      C      0.004580000000     0.141100000000     0.286940000000     0          
H29      H      0.010700000000     0.143800000000     0.309300000000     0          
C30      C      0.906100000000     0.166900000000     0.381200000000     0          
O31      O      0.173480000000     0.624420000000     0.714300000000     0          
C32      C      0.220890000000     0.613800000000     0.763460000000     0          
H33      H      0.198500000000     0.615300000000     0.769800000000     0          
C34      C      0.245420000000     0.608900000000     0.786940000000     0          
H35      H      0.239300000000     0.606200000000     0.809300000000     0          
C36      C      0.341700000000     0.606300000000     0.883310000000     0          
C37      C      0.309300000000     0.617100000000     0.891600000000     0          
C38      C      0.301200000000     0.627200000000     0.924000000000     0          
H39      H      0.279500000000     0.633900000000     0.929100000000     0          
O40      O      0.173480000000     0.124420000000     0.214300000000     0          
C41      C      0.220890000000     0.113800000000     0.263460000000     0          
H42      H      0.198500000000     0.115300000000     0.269800000000     0          
C43      C      0.245420000000     0.108900000000     0.286940000000     0          
H44      H      0.239300000000     0.106200000000     0.309300000000     0          
C45      C      0.341700000000     0.106300000000     0.383310000000     0          
C46      C      0.309300000000     0.117100000000     0.391600000000     0          
C47      C      0.301200000000     0.127200000000     0.424000000000     0          
H48      H      0.279500000000     0.133900000000     0.429100000000     0          
O49      O      0.673480000000     0.624420000000     0.214300000000     0          
C50      C      0.720890000000     0.613800000000     0.263460000000     0          
H51      H      0.698500000000     0.615300000000     0.269800000000     0          
C52      C      0.745420000000     0.608900000000     0.286940000000     0          
H53      H      0.739300000000     0.606200000000     0.309300000000     0          
C54      C      0.841700000000     0.606300000000     0.383310000000     0          
C55      C      0.809300000000     0.617100000000     0.391600000000     0          
C56      C      0.801200000000     0.627200000000     0.424000000000     0          
H57      H      0.779500000000     0.633900000000     0.429100000000     0          
O58      O      0.673480000000     0.124420000000     0.714300000000     0          
C59      C      0.720890000000     0.113800000000     0.763460000000     0          
H60      H      0.698500000000     0.115300000000     0.769800000000     0          
C61      C      0.745420000000     0.108900000000     0.786940000000     0          
H62      H      0.739300000000     0.106200000000     0.809300000000     0          
C63      C      0.843900000000     0.083100000000     0.881200000000     0          
O64      O      0.673480000000     0.125580000000     0.535700000000     0          
C65      C      0.720890000000     0.136200000000     0.486540000000     0          
H66      H      0.698500000000     0.134700000000     0.480200000000     0          
C67      C      0.745420000000     0.141100000000     0.463060000000     0          
H68      H      0.739300000000     0.143800000000     0.440700000000     0          
C69      C      0.841700000000     0.143700000000     0.366690000000     0          
C70      C      0.809300000000     0.132900000000     0.358400000000     0          
C71      C      0.801200000000     0.122800000000     0.326000000000     0          
H72      H      0.779500000000     0.116100000000     0.320900000000     0          
O73      O      0.673480000000     0.625580000000     0.035700000000     0          
C74      C      0.720890000000     0.636200000000     0.986540000000     0          
H75      H      0.698500000000     0.634700000000     0.980200000000     0          
C76      C      0.745420000000     0.641100000000     0.963060000000     0          
H77      H      0.739300000000     0.643800000000     0.940700000000     0          
C78      C      0.841700000000     0.643700000000     0.866690000000     0          
C79      C      0.809300000000     0.632900000000     0.858400000000     0          
C80      C      0.801200000000     0.622800000000     0.826000000000     0          
H81      H      0.779500000000     0.616100000000     0.820900000000     0          
O82      O      0.173480000000     0.125580000000     0.035700000000     0          
C83      C      0.220890000000     0.136200000000     0.986540000000     0          
H84      H      0.198500000000     0.134700000000     0.980200000000     0          
C85      C      0.245420000000     0.141100000000     0.963060000000     0          
H86      H      0.239300000000     0.143800000000     0.940700000000     0          
C87      C      0.343900000000     0.166900000000     0.868800000000     0          
O88      O      0.173480000000     0.625580000000     0.535700000000     0          
C89      C      0.220890000000     0.636200000000     0.486540000000     0          
H90      H      0.198500000000     0.634700000000     0.480200000000     0          
C91      C      0.245420000000     0.641100000000     0.463060000000     0          
H92      H      0.239300000000     0.643800000000     0.440700000000     0          
C93      C      0.343900000000     0.666900000000     0.368800000000     0          
O94      O      0.076520000000     0.124420000000     0.035700000000     0          
C95      C      0.029110000000     0.113800000000     0.986540000000     0          
H96      H      0.051500000000     0.115300000000     0.980200000000     0          
C97      C      0.004580000000     0.108900000000     0.963060000000     0          
H98      H      0.010700000000     0.106200000000     0.940700000000     0          
C99      C      0.908300000000     0.106300000000     0.866690000000     0          
C100     C      0.940700000000     0.117100000000     0.858400000000     0          
C101     C      0.948800000000     0.127200000000     0.826000000000     0          
H102     H      0.970500000000     0.133900000000     0.820900000000     0          
O103     O      0.076520000000     0.624420000000     0.535700000000     0          
C104     C      0.029110000000     0.613800000000     0.486540000000     0          
H105     H      0.051500000000     0.615300000000     0.480200000000     0          
C106     C      0.004580000000     0.608900000000     0.463060000000     0          
H107     H      0.010700000000     0.606200000000     0.440700000000     0          
C108     C      0.906100000000     0.583100000000     0.368800000000     0          
O109     O      0.576520000000     0.124420000000     0.535700000000     0          
C110     C      0.529110000000     0.113800000000     0.486540000000     0          
H111     H      0.551500000000     0.115300000000     0.480200000000     0          
C112     C      0.504580000000     0.108900000000     0.463060000000     0          
H113     H      0.510700000000     0.106200000000     0.440700000000     0          
C114     C      0.406100000000     0.083100000000     0.368800000000     0          
O115     O      0.576520000000     0.624420000000     0.035700000000     0          
C116     C      0.529110000000     0.613800000000     0.986540000000     0          
H117     H      0.551500000000     0.615300000000     0.980200000000     0          
C118     C      0.504580000000     0.608900000000     0.963060000000     0          
H119     H      0.510700000000     0.606200000000     0.940700000000     0          
C120     C      0.406100000000     0.583100000000     0.868800000000     0          
O121     O      0.214300000000     0.576520000000     0.625580000000     0          
C122     C      0.263460000000     0.529110000000     0.636200000000     0          
H123     H      0.269800000000     0.551500000000     0.634700000000     0          
C124     C      0.286940000000     0.504580000000     0.641100000000     0          
H125     H      0.309300000000     0.510700000000     0.643800000000     0          
C126     C      0.381200000000     0.406100000000     0.666900000000     0          
O127     O      0.214300000000     0.076520000000     0.125580000000     0          
C128     C      0.263460000000     0.029110000000     0.136200000000     0          
H129     H      0.269800000000     0.051500000000     0.134700000000     0          
C130     C      0.286940000000     0.004580000000     0.141100000000     0          
H131     H      0.309300000000     0.010700000000     0.143800000000     0          
C132     C      0.381200000000     0.906100000000     0.166900000000     0          
O133     O      0.714300000000     0.576520000000     0.125580000000     0          
C134     C      0.763460000000     0.529110000000     0.136200000000     0          
H135     H      0.769800000000     0.551500000000     0.134700000000     0          
C136     C      0.786940000000     0.504580000000     0.141100000000     0          
H137     H      0.809300000000     0.510700000000     0.143800000000     0          
C138     C      0.883310000000     0.408300000000     0.143700000000     0          
C139     C      0.891600000000     0.440700000000     0.132900000000     0          
C140     C      0.924000000000     0.448800000000     0.122800000000     0          
H141     H      0.929100000000     0.470500000000     0.116100000000     0          
O142     O      0.714300000000     0.076520000000     0.625580000000     0          
C143     C      0.763460000000     0.029110000000     0.636200000000     0          
H144     H      0.769800000000     0.051500000000     0.634700000000     0          
C145     C      0.786940000000     0.004580000000     0.641100000000     0          
H146     H      0.809300000000     0.010700000000     0.643800000000     0          
C147     C      0.881200000000     0.906100000000     0.666900000000     0          
O148     O      0.714300000000     0.173480000000     0.624420000000     0          
C149     C      0.763460000000     0.220890000000     0.613800000000     0          
H150     H      0.769800000000     0.198500000000     0.615300000000     0          
C151     C      0.786940000000     0.245420000000     0.608900000000     0          
H152     H      0.809300000000     0.239300000000     0.606200000000     0          
C153     C      0.881200000000     0.343900000000     0.583100000000     0          
O154     O      0.714300000000     0.673480000000     0.124420000000     0          
C155     C      0.763460000000     0.720890000000     0.113800000000     0          
H156     H      0.769800000000     0.698500000000     0.115300000000     0          
C157     C      0.786940000000     0.745420000000     0.108900000000     0          
H158     H      0.809300000000     0.739300000000     0.106200000000     0          
C159     C      0.881200000000     0.843900000000     0.083100000000     0          
O160     O      0.214300000000     0.173480000000     0.124420000000     0          
C161     C      0.263460000000     0.220890000000     0.113800000000     0          
H162     H      0.269800000000     0.198500000000     0.115300000000     0          
C163     C      0.286940000000     0.245420000000     0.108900000000     0          
H164     H      0.309300000000     0.239300000000     0.106200000000     0          
C165     C      0.383310000000     0.341700000000     0.106300000000     0          
C166     C      0.391600000000     0.309300000000     0.117100000000     0          
C167     C      0.424000000000     0.301200000000     0.127200000000     0          
H168     H      0.429100000000     0.279500000000     0.133900000000     0          
O169     O      0.214300000000     0.673480000000     0.624420000000     0          
C170     C      0.263460000000     0.720890000000     0.613800000000     0          
H171     H      0.269800000000     0.698500000000     0.615300000000     0          
C172     C      0.286940000000     0.745420000000     0.608900000000     0          
H173     H      0.309300000000     0.739300000000     0.606200000000     0          
C174     C      0.383310000000     0.841700000000     0.606300000000     0          
C175     C      0.391600000000     0.809300000000     0.617100000000     0          
C176     C      0.424000000000     0.801200000000     0.627200000000     0          
H177     H      0.429100000000     0.779500000000     0.633900000000     0          
O178     O      0.535700000000     0.673480000000     0.125580000000     0          
C179     C      0.486540000000     0.720890000000     0.136200000000     0          
H180     H      0.480200000000     0.698500000000     0.134700000000     0          
C181     C      0.463060000000     0.745420000000     0.141100000000     0          
H182     H      0.440700000000     0.739300000000     0.143800000000     0          
C183     C      0.366690000000     0.841700000000     0.143700000000     0          
C184     C      0.358400000000     0.809300000000     0.132900000000     0          
C185     C      0.326000000000     0.801200000000     0.122800000000     0          
H186     H      0.320900000000     0.779500000000     0.116100000000     0          
O187     O      0.535700000000     0.173480000000     0.625580000000     0          
C188     C      0.486540000000     0.220890000000     0.636200000000     0          
H189     H      0.480200000000     0.198500000000     0.634700000000     0          
C190     C      0.463060000000     0.245420000000     0.641100000000     0          
H191     H      0.440700000000     0.239300000000     0.643800000000     0          
C192     C      0.366690000000     0.341700000000     0.643700000000     0          
C193     C      0.358400000000     0.309300000000     0.632900000000     0          
C194     C      0.326000000000     0.301200000000     0.622800000000     0          
H195     H      0.320900000000     0.279500000000     0.616100000000     0          
O196     O      0.035700000000     0.673480000000     0.625580000000     0          
C197     C      0.986540000000     0.720890000000     0.636200000000     0          
H198     H      0.980200000000     0.698500000000     0.634700000000     0          
C199     C      0.963060000000     0.745420000000     0.641100000000     0          
H200     H      0.940700000000     0.739300000000     0.643800000000     0          
C201     C      0.866690000000     0.841700000000     0.643700000000     0          
C202     C      0.858400000000     0.809300000000     0.632900000000     0          
C203     C      0.826000000000     0.801200000000     0.622800000000     0          
H204     H      0.820900000000     0.779500000000     0.616100000000     0          
O205     O      0.035700000000     0.173480000000     0.125580000000     0          
C206     C      0.986540000000     0.220890000000     0.136200000000     0          
H207     H      0.980200000000     0.198500000000     0.134700000000     0          
C208     C      0.963060000000     0.245420000000     0.141100000000     0          
H209     H      0.940700000000     0.239300000000     0.143800000000     0          
C210     C      0.868800000000     0.343900000000     0.166900000000     0          
O211     O      0.035700000000     0.076520000000     0.124420000000     0          
C212     C      0.986540000000     0.029110000000     0.113800000000     0          
H213     H      0.980200000000     0.051500000000     0.115300000000     0          
C214     C      0.963060000000     0.004580000000     0.108900000000     0          
H215     H      0.940700000000     0.010700000000     0.106200000000     0          
C216     C      0.866690000000     0.908300000000     0.106300000000     0          
C217     C      0.858400000000     0.940700000000     0.117100000000     0          
C218     C      0.826000000000     0.948800000000     0.127200000000     0          
H219     H      0.820900000000     0.970500000000     0.133900000000     0          
O220     O      0.035700000000     0.576520000000     0.624420000000     0          
C221     C      0.986540000000     0.529110000000     0.613800000000     0          
H222     H      0.980200000000     0.551500000000     0.615300000000     0          
C223     C      0.963060000000     0.504580000000     0.608900000000     0          
H224     H      0.940700000000     0.510700000000     0.606200000000     0          
C225     C      0.866690000000     0.408300000000     0.606300000000     0          
C226     C      0.858400000000     0.440700000000     0.617100000000     0          
C227     C      0.826000000000     0.448800000000     0.627200000000     0          
H228     H      0.820900000000     0.470500000000     0.633900000000     0          
O229     O      0.535700000000     0.076520000000     0.624420000000     0          
C230     C      0.486540000000     0.029110000000     0.613800000000     0          
H231     H      0.480200000000     0.051500000000     0.615300000000     0          
C232     C      0.463060000000     0.004580000000     0.608900000000     0          
H233     H      0.440700000000     0.010700000000     0.606200000000     0          
C234     C      0.368800000000     0.906100000000     0.583100000000     0          
O235     O      0.535700000000     0.576520000000     0.124420000000     0          
C236     C      0.486540000000     0.529110000000     0.113800000000     0          
H237     H      0.480200000000     0.551500000000     0.115300000000     0          
C238     C      0.463060000000     0.504580000000     0.108900000000     0          
H239     H      0.440700000000     0.510700000000     0.106200000000     0          
C240     C      0.368800000000     0.406100000000     0.083100000000     0          
O241     O      0.625580000000     0.214300000000     0.576520000000     0          
C242     C      0.636200000000     0.263460000000     0.529110000000     0          
H243     H      0.634700000000     0.269800000000     0.551500000000     0          
C244     C      0.641100000000     0.286940000000     0.504580000000     0          
H245     H      0.643800000000     0.309300000000     0.510700000000     0          
C246     C      0.643700000000     0.383310000000     0.408300000000     0          
C247     C      0.632900000000     0.391600000000     0.440700000000     0          
C248     C      0.622800000000     0.424000000000     0.448800000000     0          
H249     H      0.616100000000     0.429100000000     0.470500000000     0          
O250     O      0.625580000000     0.714300000000     0.076520000000     0          
C251     C      0.636200000000     0.763460000000     0.029110000000     0          
H252     H      0.634700000000     0.769800000000     0.051500000000     0          
C253     C      0.641100000000     0.786940000000     0.004580000000     0          
H254     H      0.643800000000     0.809300000000     0.010700000000     0          
C255     C      0.643700000000     0.883310000000     0.908300000000     0          
C256     C      0.632900000000     0.891600000000     0.940700000000     0          
C257     C      0.622800000000     0.924000000000     0.948800000000     0          
H258     H      0.616100000000     0.929100000000     0.970500000000     0          
O259     O      0.125580000000     0.214300000000     0.076520000000     0          
C260     C      0.136200000000     0.263460000000     0.029110000000     0          
H261     H      0.134700000000     0.269800000000     0.051500000000     0          
C262     C      0.141100000000     0.286940000000     0.004580000000     0          
H263     H      0.143800000000     0.309300000000     0.010700000000     0          
C264     C      0.166900000000     0.381200000000     0.906100000000     0          
O265     O      0.125580000000     0.714300000000     0.576520000000     0          
C266     C      0.136200000000     0.763460000000     0.529110000000     0          
H267     H      0.134700000000     0.769800000000     0.551500000000     0          
C268     C      0.141100000000     0.786940000000     0.504580000000     0          
H269     H      0.143800000000     0.809300000000     0.510700000000     0          
C270     C      0.143700000000     0.883310000000     0.408300000000     0          
C271     C      0.132900000000     0.891600000000     0.440700000000     0          
C272     C      0.122800000000     0.924000000000     0.448800000000     0          
H273     H      0.116100000000     0.929100000000     0.470500000000     0          
O274     O      0.624420000000     0.714300000000     0.173480000000     0          
C275     C      0.613800000000     0.763460000000     0.220890000000     0          
H276     H      0.615300000000     0.769800000000     0.198500000000     0          
C277     C      0.608900000000     0.786940000000     0.245420000000     0          
H278     H      0.606200000000     0.809300000000     0.239300000000     0          
C279     C      0.583100000000     0.881200000000     0.343900000000     0          
O280     O      0.624420000000     0.214300000000     0.673480000000     0          
C281     C      0.613800000000     0.263460000000     0.720890000000     0          
H282     H      0.615300000000     0.269800000000     0.698500000000     0          
C283     C      0.608900000000     0.286940000000     0.745420000000     0          
H284     H      0.606200000000     0.309300000000     0.739300000000     0          
C285     C      0.583100000000     0.381200000000     0.843900000000     0          
O286     O      0.124420000000     0.714300000000     0.673480000000     0          
C287     C      0.113800000000     0.763460000000     0.720890000000     0          
H288     H      0.115300000000     0.769800000000     0.698500000000     0          
C289     C      0.108900000000     0.786940000000     0.745420000000     0          
H290     H      0.106200000000     0.809300000000     0.739300000000     0          
C291     C      0.106300000000     0.883310000000     0.841700000000     0          
C292     C      0.117100000000     0.891600000000     0.809300000000     0          
C293     C      0.127200000000     0.924000000000     0.801200000000     0          
H294     H      0.133900000000     0.929100000000     0.779500000000     0          
O295     O      0.124420000000     0.214300000000     0.173480000000     0          
C296     C      0.113800000000     0.263460000000     0.220890000000     0          
H297     H      0.115300000000     0.269800000000     0.198500000000     0          
C298     C      0.108900000000     0.286940000000     0.245420000000     0          
H299     H      0.106200000000     0.309300000000     0.239300000000     0          
C300     C      0.083100000000     0.381200000000     0.343900000000     0          
O301     O      0.125580000000     0.535700000000     0.673480000000     0          
C302     C      0.136200000000     0.486540000000     0.720890000000     0          
H303     H      0.134700000000     0.480200000000     0.698500000000     0          
C304     C      0.141100000000     0.463060000000     0.745420000000     0          
H305     H      0.143800000000     0.440700000000     0.739300000000     0          
C306     C      0.143700000000     0.366690000000     0.841700000000     0          
C307     C      0.132900000000     0.358400000000     0.809300000000     0          
C308     C      0.122800000000     0.326000000000     0.801200000000     0          
H309     H      0.116100000000     0.320900000000     0.779500000000     0          
O310     O      0.125580000000     0.035700000000     0.173480000000     0          
C311     C      0.136200000000     0.986540000000     0.220890000000     0          
H312     H      0.134700000000     0.980200000000     0.198500000000     0          
C313     C      0.141100000000     0.963060000000     0.245420000000     0          
H314     H      0.143800000000     0.940700000000     0.239300000000     0          
C315     C      0.166900000000     0.868800000000     0.343900000000     0          
O316     O      0.625580000000     0.535700000000     0.173480000000     0          
C317     C      0.636200000000     0.486540000000     0.220890000000     0          
H318     H      0.634700000000     0.480200000000     0.198500000000     0          
C319     C      0.641100000000     0.463060000000     0.245420000000     0          
H320     H      0.643800000000     0.440700000000     0.239300000000     0          
C321     C      0.666900000000     0.368800000000     0.343900000000     0          
O322     O      0.625580000000     0.035700000000     0.673480000000     0          
C323     C      0.636200000000     0.986540000000     0.720890000000     0          
H324     H      0.634700000000     0.980200000000     0.698500000000     0          
C325     C      0.641100000000     0.963060000000     0.745420000000     0          
H326     H      0.643800000000     0.940700000000     0.739300000000     0          
C327     C      0.666900000000     0.868800000000     0.843900000000     0          
O328     O      0.124420000000     0.035700000000     0.076520000000     0          
C329     C      0.113800000000     0.986540000000     0.029110000000     0          
H330     H      0.115300000000     0.980200000000     0.051500000000     0          
C331     C      0.108900000000     0.963060000000     0.004580000000     0          
H332     H      0.106200000000     0.940700000000     0.010700000000     0          
C333     C      0.083100000000     0.868800000000     0.906100000000     0          
O334     O      0.124420000000     0.535700000000     0.576520000000     0          
C335     C      0.113800000000     0.486540000000     0.529110000000     0          
H336     H      0.115300000000     0.480200000000     0.551500000000     0          
C337     C      0.108900000000     0.463060000000     0.504580000000     0          
H338     H      0.106200000000     0.440700000000     0.510700000000     0          
C339     C      0.106300000000     0.366690000000     0.408300000000     0          
C340     C      0.117100000000     0.358400000000     0.440700000000     0          
C341     C      0.127200000000     0.326000000000     0.448800000000     0          
H342     H      0.133900000000     0.320900000000     0.470500000000     0          
O343     O      0.624420000000     0.035700000000     0.576520000000     0          
C344     C      0.613800000000     0.986540000000     0.529110000000     0          
H345     H      0.615300000000     0.980200000000     0.551500000000     0          
C346     C      0.608900000000     0.963060000000     0.504580000000     0          
H347     H      0.606200000000     0.940700000000     0.510700000000     0          
C348     C      0.606300000000     0.866690000000     0.408300000000     0          
C349     C      0.617100000000     0.858400000000     0.440700000000     0          
C350     C      0.627200000000     0.826000000000     0.448800000000     0          
H351     H      0.633900000000     0.820900000000     0.470500000000     0          
O352     O      0.624420000000     0.535700000000     0.076520000000     0          
C353     C      0.613800000000     0.486540000000     0.029110000000     0          
H354     H      0.615300000000     0.480200000000     0.051500000000     0          
C355     C      0.608900000000     0.463060000000     0.004580000000     0          
H356     H      0.606200000000     0.440700000000     0.010700000000     0          
C357     C      0.606300000000     0.366690000000     0.908300000000     0          
C358     C      0.617100000000     0.358400000000     0.940700000000     0          
C359     C      0.627200000000     0.326000000000     0.948800000000     0          
H360     H      0.633900000000     0.320900000000     0.970500000000     0          
O361     O      0.375580000000     0.826520000000     0.285700000000     0          
C362     C      0.386200000000     0.779110000000     0.236540000000     0          
H363     H      0.384700000000     0.801500000000     0.230200000000     0          
C364     C      0.391100000000     0.754580000000     0.213060000000     0          
H365     H      0.393800000000     0.760700000000     0.190700000000     0          
C366     C      0.393700000000     0.658300000000     0.116690000000     0          
C367     C      0.382900000000     0.690700000000     0.108400000000     0          
C368     C      0.372800000000     0.698800000000     0.076000000000     0          
H369     H      0.366100000000     0.720500000000     0.070900000000     0          
O370     O      0.375580000000     0.326520000000     0.785700000000     0          
C371     C      0.386200000000     0.279110000000     0.736540000000     0          
H372     H      0.384700000000     0.301500000000     0.730200000000     0          
C373     C      0.391100000000     0.254580000000     0.713060000000     0          
H374     H      0.393800000000     0.260700000000     0.690700000000     0          
C375     C      0.393700000000     0.158300000000     0.616690000000     0          
C376     C      0.382900000000     0.190700000000     0.608400000000     0          
C377     C      0.372800000000     0.198800000000     0.576000000000     0          
H378     H      0.366100000000     0.220500000000     0.570900000000     0          
O379     O      0.875580000000     0.826520000000     0.785700000000     0          
C380     C      0.886200000000     0.779110000000     0.736540000000     0          
H381     H      0.884700000000     0.801500000000     0.730200000000     0          
C382     C      0.891100000000     0.754580000000     0.713060000000     0          
H383     H      0.893800000000     0.760700000000     0.690700000000     0          
C384     C      0.893700000000     0.658300000000     0.616690000000     0          
C385     C      0.882900000000     0.690700000000     0.608400000000     0          
C386     C      0.872800000000     0.698800000000     0.576000000000     0          
H387     H      0.866100000000     0.720500000000     0.570900000000     0          
O388     O      0.875580000000     0.326520000000     0.285700000000     0          
C389     C      0.886200000000     0.279110000000     0.236540000000     0          
H390     H      0.884700000000     0.301500000000     0.230200000000     0          
C391     C      0.891100000000     0.254580000000     0.213060000000     0          
H392     H      0.893800000000     0.260700000000     0.190700000000     0          
C393     C      0.916900000000     0.156100000000     0.118800000000     0          
O394     O      0.374420000000     0.423480000000     0.785700000000     0          
C395     C      0.363800000000     0.470890000000     0.736540000000     0          
H396     H      0.365300000000     0.448500000000     0.730200000000     0          
C397     C      0.358900000000     0.495420000000     0.713060000000     0          
H398     H      0.356200000000     0.489300000000     0.690700000000     0          
C399     C      0.333100000000     0.593900000000     0.618800000000     0          
O400     O      0.374420000000     0.923480000000     0.285700000000     0          
C401     C      0.363800000000     0.970890000000     0.236540000000     0          
H402     H      0.365300000000     0.948500000000     0.230200000000     0          
C403     C      0.358900000000     0.995420000000     0.213060000000     0          
H404     H      0.356200000000     0.989300000000     0.190700000000     0          
C405     C      0.356300000000     0.091700000000     0.116690000000     0          
C406     C      0.367100000000     0.059300000000     0.108400000000     0          
C407     C      0.377200000000     0.051200000000     0.076000000000     0          
H408     H      0.383900000000     0.029500000000     0.070900000000     0          
O409     O      0.874420000000     0.423480000000     0.285700000000     0          
C410     C      0.863800000000     0.470890000000     0.236540000000     0          
H411     H      0.865300000000     0.448500000000     0.230200000000     0          
C412     C      0.858900000000     0.495420000000     0.213060000000     0          
H413     H      0.856200000000     0.489300000000     0.190700000000     0          
C414     C      0.856300000000     0.591700000000     0.116690000000     0          
C415     C      0.867100000000     0.559300000000     0.108400000000     0          
C416     C      0.877200000000     0.551200000000     0.076000000000     0          
H417     H      0.883900000000     0.529500000000     0.070900000000     0          
O418     O      0.874420000000     0.923480000000     0.785700000000     0          
C419     C      0.863800000000     0.970890000000     0.736540000000     0          
H420     H      0.865300000000     0.948500000000     0.730200000000     0          
C421     C      0.858900000000     0.995420000000     0.713060000000     0          
H422     H      0.856200000000     0.989300000000     0.690700000000     0          
C423     C      0.833100000000     0.093900000000     0.618800000000     0          
O424     O      0.875580000000     0.923480000000     0.964300000000     0          
C425     C      0.886200000000     0.970890000000     0.013460000000     0          
H426     H      0.884700000000     0.948500000000     0.019800000000     0          
C427     C      0.891100000000     0.995420000000     0.036940000000     0          
H428     H      0.893800000000     0.989300000000     0.059300000000     0          
C429     C      0.893700000000     0.091700000000     0.133310000000     0          
C430     C      0.882900000000     0.059300000000     0.141600000000     0          
C431     C      0.872800000000     0.051200000000     0.174000000000     0          
H432     H      0.866100000000     0.029500000000     0.179100000000     0          
O433     O      0.875580000000     0.423480000000     0.464300000000     0          
C434     C      0.886200000000     0.470890000000     0.513460000000     0          
H435     H      0.884700000000     0.448500000000     0.519800000000     0          
C436     C      0.891100000000     0.495420000000     0.536940000000     0          
H437     H      0.893800000000     0.489300000000     0.559300000000     0          
C438     C      0.916900000000     0.593900000000     0.631200000000     0          
O439     O      0.375580000000     0.923480000000     0.464300000000     0          
C440     C      0.386200000000     0.970890000000     0.513460000000     0          
H441     H      0.384700000000     0.948500000000     0.519800000000     0          
C442     C      0.391100000000     0.995420000000     0.536940000000     0          
H443     H      0.393800000000     0.989300000000     0.559300000000     0          
C444     C      0.416900000000     0.093900000000     0.631200000000     0          
O445     O      0.375580000000     0.423480000000     0.964300000000     0          
C446     C      0.386200000000     0.470890000000     0.013460000000     0          
H447     H      0.384700000000     0.448500000000     0.019800000000     0          
C448     C      0.391100000000     0.495420000000     0.036940000000     0          
H449     H      0.393800000000     0.489300000000     0.059300000000     0          
C450     C      0.416900000000     0.593900000000     0.131200000000     0          
O451     O      0.874420000000     0.326520000000     0.464300000000     0          
C452     C      0.863800000000     0.279110000000     0.513460000000     0          
H453     H      0.865300000000     0.301500000000     0.519800000000     0          
C454     C      0.858900000000     0.254580000000     0.536940000000     0          
H455     H      0.856200000000     0.260700000000     0.559300000000     0          
C456     C      0.856300000000     0.158300000000     0.633310000000     0          
C457     C      0.867100000000     0.190700000000     0.641600000000     0          
C458     C      0.877200000000     0.198800000000     0.674000000000     0          
H459     H      0.883900000000     0.220500000000     0.679100000000     0          
O460     O      0.874420000000     0.826520000000     0.964300000000     0          
C461     C      0.863800000000     0.779110000000     0.013460000000     0          
H462     H      0.865300000000     0.801500000000     0.019800000000     0          
C463     C      0.858900000000     0.754580000000     0.036940000000     0          
H464     H      0.856200000000     0.760700000000     0.059300000000     0          
C465     C      0.833100000000     0.656100000000     0.131200000000     0          
O466     O      0.374420000000     0.326520000000     0.964300000000     0          
C467     C      0.363800000000     0.279110000000     0.013460000000     0          
H468     H      0.365300000000     0.301500000000     0.019800000000     0          
C469     C      0.358900000000     0.254580000000     0.036940000000     0          
H470     H      0.356200000000     0.260700000000     0.059300000000     0          
C471     C      0.333100000000     0.156100000000     0.131200000000     0          
O472     O      0.374420000000     0.826520000000     0.464300000000     0          
C473     C      0.363800000000     0.779110000000     0.513460000000     0          
H474     H      0.365300000000     0.801500000000     0.519800000000     0          
C475     C      0.358900000000     0.754580000000     0.536940000000     0          
H476     H      0.356200000000     0.760700000000     0.559300000000     0          
C477     C      0.356300000000     0.658300000000     0.633310000000     0          
C478     C      0.367100000000     0.690700000000     0.641600000000     0          
C479     C      0.377200000000     0.698800000000     0.674000000000     0          
H480     H      0.383900000000     0.720500000000     0.679100000000     0          
O481     O      0.326520000000     0.464300000000     0.874420000000     0          
C482     C      0.279110000000     0.513460000000     0.863800000000     0          
H483     H      0.301500000000     0.519800000000     0.865300000000     0          
C484     C      0.254580000000     0.536940000000     0.858900000000     0          
H485     H      0.260700000000     0.559300000000     0.856200000000     0          
C486     C      0.158300000000     0.633310000000     0.856300000000     0          
C487     C      0.190700000000     0.641600000000     0.867100000000     0          
C488     C      0.198800000000     0.674000000000     0.877200000000     0          
H489     H      0.220500000000     0.679100000000     0.883900000000     0          
O490     O      0.326520000000     0.964300000000     0.374420000000     0          
C491     C      0.279110000000     0.013460000000     0.363800000000     0          
H492     H      0.301500000000     0.019800000000     0.365300000000     0          
C493     C      0.254580000000     0.036940000000     0.358900000000     0          
H494     H      0.260700000000     0.059300000000     0.356200000000     0          
C495     C      0.156100000000     0.131200000000     0.333100000000     0          
O496     O      0.826520000000     0.464300000000     0.374420000000     0          
C497     C      0.779110000000     0.513460000000     0.363800000000     0          
H498     H      0.801500000000     0.519800000000     0.365300000000     0          
C499     C      0.754580000000     0.536940000000     0.358900000000     0          
H500     H      0.760700000000     0.559300000000     0.356200000000     0          
C501     C      0.656100000000     0.631200000000     0.333100000000     0          
O502     O      0.826520000000     0.964300000000     0.874420000000     0          
C503     C      0.779110000000     0.013460000000     0.863800000000     0          
H504     H      0.801500000000     0.019800000000     0.865300000000     0          
C505     C      0.754580000000     0.036940000000     0.858900000000     0          
H506     H      0.760700000000     0.059300000000     0.856200000000     0          
C507     C      0.656100000000     0.131200000000     0.833100000000     0          
O508     O      0.923480000000     0.964300000000     0.875580000000     0          
C509     C      0.970890000000     0.013460000000     0.886200000000     0          
H510     H      0.948500000000     0.019800000000     0.884700000000     0          
C511     C      0.995420000000     0.036940000000     0.891100000000     0          
H512     H      0.989300000000     0.059300000000     0.893800000000     0          
C513     C      0.093900000000     0.131200000000     0.916900000000     0          
O514     O      0.923480000000     0.464300000000     0.375580000000     0          
C515     C      0.970890000000     0.513460000000     0.386200000000     0          
H516     H      0.948500000000     0.519800000000     0.384700000000     0          
C517     C      0.995420000000     0.536940000000     0.391100000000     0          
H518     H      0.989300000000     0.559300000000     0.393800000000     0          
C519     C      0.093900000000     0.631200000000     0.416900000000     0          
O520     O      0.423480000000     0.964300000000     0.375580000000     0          
C521     C      0.470890000000     0.013460000000     0.386200000000     0          
H522     H      0.448500000000     0.019800000000     0.384700000000     0          
C523     C      0.495420000000     0.036940000000     0.391100000000     0          
H524     H      0.489300000000     0.059300000000     0.393800000000     0          
C525     C      0.593900000000     0.131200000000     0.416900000000     0          
O526     O      0.423480000000     0.464300000000     0.875580000000     0          
C527     C      0.470890000000     0.513460000000     0.886200000000     0          
H528     H      0.448500000000     0.519800000000     0.884700000000     0          
C529     C      0.495420000000     0.536940000000     0.891100000000     0          
H530     H      0.489300000000     0.559300000000     0.893800000000     0          
C531     C      0.591700000000     0.633310000000     0.893700000000     0          
C532     C      0.559300000000     0.641600000000     0.882900000000     0          
C533     C      0.551200000000     0.674000000000     0.872800000000     0          
H534     H      0.529500000000     0.679100000000     0.866100000000     0          
O535     O      0.423480000000     0.785700000000     0.374420000000     0          
C536     C      0.470890000000     0.736540000000     0.363800000000     0          
H537     H      0.448500000000     0.730200000000     0.365300000000     0          
C538     C      0.495420000000     0.713060000000     0.358900000000     0          
H539     H      0.489300000000     0.690700000000     0.356200000000     0          
C540     C      0.591700000000     0.616690000000     0.356300000000     0          
C541     C      0.559300000000     0.608400000000     0.367100000000     0          
C542     C      0.551200000000     0.576000000000     0.377200000000     0          
H543     H      0.529500000000     0.570900000000     0.383900000000     0          
O544     O      0.423480000000     0.285700000000     0.874420000000     0          
C545     C      0.470890000000     0.236540000000     0.863800000000     0          
H546     H      0.448500000000     0.230200000000     0.865300000000     0          
C547     C      0.495420000000     0.213060000000     0.858900000000     0          
H548     H      0.489300000000     0.190700000000     0.856200000000     0          
C549     C      0.591700000000     0.116690000000     0.856300000000     0          
C550     C      0.559300000000     0.108400000000     0.867100000000     0          
C551     C      0.551200000000     0.076000000000     0.877200000000     0          
H552     H      0.529500000000     0.070900000000     0.883900000000     0          
O553     O      0.923480000000     0.785700000000     0.874420000000     0          
C554     C      0.970890000000     0.736540000000     0.863800000000     0          
H555     H      0.948500000000     0.730200000000     0.865300000000     0          
C556     C      0.995420000000     0.713060000000     0.858900000000     0          
H557     H      0.989300000000     0.690700000000     0.856200000000     0          
C558     C      0.093900000000     0.618800000000     0.833100000000     0          
O559     O      0.923480000000     0.285700000000     0.374420000000     0          
C560     C      0.970890000000     0.236540000000     0.363800000000     0          
H561     H      0.948500000000     0.230200000000     0.365300000000     0          
C562     C      0.995420000000     0.213060000000     0.358900000000     0          
H563     H      0.989300000000     0.190700000000     0.356200000000     0          
C564     C      0.091700000000     0.116690000000     0.356300000000     0          
C565     C      0.059300000000     0.108400000000     0.367100000000     0          
C566     C      0.051200000000     0.076000000000     0.377200000000     0          
H567     H      0.029500000000     0.070900000000     0.383900000000     0          
O568     O      0.826520000000     0.285700000000     0.375580000000     0          
C569     C      0.779110000000     0.236540000000     0.386200000000     0          
H570     H      0.801500000000     0.230200000000     0.384700000000     0          
C571     C      0.754580000000     0.213060000000     0.391100000000     0          
H572     H      0.760700000000     0.190700000000     0.393800000000     0          
C573     C      0.658300000000     0.116690000000     0.393700000000     0          
C574     C      0.690700000000     0.108400000000     0.382900000000     0          
C575     C      0.698800000000     0.076000000000     0.372800000000     0          
H576     H      0.720500000000     0.070900000000     0.366100000000     0          
O577     O      0.826520000000     0.785700000000     0.875580000000     0          
C578     C      0.779110000000     0.736540000000     0.886200000000     0          
H579     H      0.801500000000     0.730200000000     0.884700000000     0          
C580     C      0.754580000000     0.713060000000     0.891100000000     0          
H581     H      0.760700000000     0.690700000000     0.893800000000     0          
C582     C      0.656100000000     0.618800000000     0.916900000000     0          
O583     O      0.326520000000     0.285700000000     0.875580000000     0          
C584     C      0.279110000000     0.236540000000     0.886200000000     0          
H585     H      0.301500000000     0.230200000000     0.884700000000     0          
C586     C      0.254580000000     0.213060000000     0.891100000000     0          
H587     H      0.260700000000     0.190700000000     0.893800000000     0          
C588     C      0.158300000000     0.116690000000     0.893700000000     0          
C589     C      0.190700000000     0.108400000000     0.882900000000     0          
C590     C      0.198800000000     0.076000000000     0.872800000000     0          
H591     H      0.220500000000     0.070900000000     0.866100000000     0          
O592     O      0.326520000000     0.785700000000     0.375580000000     0          
C593     C      0.279110000000     0.736540000000     0.386200000000     0          
H594     H      0.301500000000     0.730200000000     0.384700000000     0          
C595     C      0.254580000000     0.713060000000     0.391100000000     0          
H596     H      0.260700000000     0.690700000000     0.393800000000     0          
C597     C      0.158300000000     0.616690000000     0.393700000000     0          
C598     C      0.190700000000     0.608400000000     0.382900000000     0          
C599     C      0.198800000000     0.576000000000     0.372800000000     0          
H600     H      0.220500000000     0.570900000000     0.366100000000     0          
O601     O      0.964300000000     0.875580000000     0.923480000000     0          
C602     C      0.013460000000     0.886200000000     0.970890000000     0          
H603     H      0.019800000000     0.884700000000     0.948500000000     0          
C604     C      0.036940000000     0.891100000000     0.995420000000     0          
H605     H      0.059300000000     0.893800000000     0.989300000000     0          
C606     C      0.131200000000     0.916900000000     0.093900000000     0          
O607     O      0.964300000000     0.375580000000     0.423480000000     0          
C608     C      0.013460000000     0.386200000000     0.470890000000     0          
H609     H      0.019800000000     0.384700000000     0.448500000000     0          
C610     C      0.036940000000     0.391100000000     0.495420000000     0          
H611     H      0.059300000000     0.393800000000     0.489300000000     0          
C612     C      0.131200000000     0.416900000000     0.593900000000     0          
O613     O      0.464300000000     0.875580000000     0.423480000000     0          
C614     C      0.513460000000     0.886200000000     0.470890000000     0          
H615     H      0.519800000000     0.884700000000     0.448500000000     0          
C616     C      0.536940000000     0.891100000000     0.495420000000     0          
H617     H      0.559300000000     0.893800000000     0.489300000000     0          
C618     C      0.633310000000     0.893700000000     0.591700000000     0          
C619     C      0.641600000000     0.882900000000     0.559300000000     0          
C620     C      0.674000000000     0.872800000000     0.551200000000     0          
H621     H      0.679100000000     0.866100000000     0.529500000000     0          
O622     O      0.464300000000     0.375580000000     0.923480000000     0          
C623     C      0.513460000000     0.386200000000     0.970890000000     0          
H624     H      0.519800000000     0.384700000000     0.948500000000     0          
C625     C      0.536940000000     0.391100000000     0.995420000000     0          
H626     H      0.559300000000     0.393800000000     0.989300000000     0          
C627     C      0.631200000000     0.416900000000     0.093900000000     0          
O628     O      0.464300000000     0.874420000000     0.326520000000     0          
C629     C      0.513460000000     0.863800000000     0.279110000000     0          
H630     H      0.519800000000     0.865300000000     0.301500000000     0          
C631     C      0.536940000000     0.858900000000     0.254580000000     0          
H632     H      0.559300000000     0.856200000000     0.260700000000     0          
C633     C      0.631200000000     0.833100000000     0.156100000000     0          
O634     O      0.464300000000     0.374420000000     0.826520000000     0          
C635     C      0.513460000000     0.363800000000     0.779110000000     0          
H636     H      0.519800000000     0.365300000000     0.801500000000     0          
C637     C      0.536940000000     0.358900000000     0.754580000000     0          
H638     H      0.559300000000     0.356200000000     0.760700000000     0          
C639     C      0.631200000000     0.333100000000     0.656100000000     0          
O640     O      0.964300000000     0.874420000000     0.826520000000     0          
C641     C      0.013460000000     0.863800000000     0.779110000000     0          
H642     H      0.019800000000     0.865300000000     0.801500000000     0          
C643     C      0.036940000000     0.858900000000     0.754580000000     0          
H644     H      0.059300000000     0.856200000000     0.760700000000     0          
C645     C      0.131200000000     0.833100000000     0.656100000000     0          
O646     O      0.964300000000     0.374420000000     0.326520000000     0          
C647     C      0.013460000000     0.363800000000     0.279110000000     0          
H648     H      0.019800000000     0.365300000000     0.301500000000     0          
C649     C      0.036940000000     0.358900000000     0.254580000000     0          
H650     H      0.059300000000     0.356200000000     0.260700000000     0          
C651     C      0.133310000000     0.356300000000     0.158300000000     0          
C652     C      0.141600000000     0.367100000000     0.190700000000     0          
C653     C      0.174000000000     0.377200000000     0.198800000000     0          
H654     H      0.179100000000     0.383900000000     0.220500000000     0          
O655     O      0.285700000000     0.375580000000     0.826520000000     0          
C656     C      0.236540000000     0.386200000000     0.779110000000     0          
H657     H      0.230200000000     0.384700000000     0.801500000000     0          
C658     C      0.213060000000     0.391100000000     0.754580000000     0          
H659     H      0.190700000000     0.393800000000     0.760700000000     0          
C660     C      0.116690000000     0.393700000000     0.658300000000     0          
C661     C      0.108400000000     0.382900000000     0.690700000000     0          
C662     C      0.076000000000     0.372800000000     0.698800000000     0          
H663     H      0.070900000000     0.366100000000     0.720500000000     0          
O664     O      0.285700000000     0.875580000000     0.326520000000     0          
C665     C      0.236540000000     0.886200000000     0.279110000000     0          
H666     H      0.230200000000     0.884700000000     0.301500000000     0          
C667     C      0.213060000000     0.891100000000     0.254580000000     0          
H668     H      0.190700000000     0.893800000000     0.260700000000     0          
C669     C      0.116690000000     0.893700000000     0.158300000000     0          
C670     C      0.108400000000     0.882900000000     0.190700000000     0          
C671     C      0.076000000000     0.872800000000     0.198800000000     0          
H672     H      0.070900000000     0.866100000000     0.220500000000     0          
O673     O      0.785700000000     0.375580000000     0.326520000000     0          
C674     C      0.736540000000     0.386200000000     0.279110000000     0          
H675     H      0.730200000000     0.384700000000     0.301500000000     0          
C676     C      0.713060000000     0.391100000000     0.254580000000     0          
H677     H      0.690700000000     0.393800000000     0.260700000000     0          
C678     C      0.616690000000     0.393700000000     0.158300000000     0          
C679     C      0.608400000000     0.382900000000     0.190700000000     0          
C680     C      0.576000000000     0.372800000000     0.198800000000     0          
H681     H      0.570900000000     0.366100000000     0.220500000000     0          
O682     O      0.785700000000     0.875580000000     0.826520000000     0          
C683     C      0.736540000000     0.886200000000     0.779110000000     0          
H684     H      0.730200000000     0.884700000000     0.801500000000     0          
C685     C      0.713060000000     0.891100000000     0.754580000000     0          
H686     H      0.690700000000     0.893800000000     0.760700000000     0          
C687     C      0.618800000000     0.916900000000     0.656100000000     0          
O688     O      0.785700000000     0.374420000000     0.423480000000     0          
C689     C      0.736540000000     0.363800000000     0.470890000000     0          
H690     H      0.730200000000     0.365300000000     0.448500000000     0          
C691     C      0.713060000000     0.358900000000     0.495420000000     0          
H692     H      0.690700000000     0.356200000000     0.489300000000     0          
C693     C      0.616690000000     0.356300000000     0.591700000000     0          
C694     C      0.608400000000     0.367100000000     0.559300000000     0          
C695     C      0.576000000000     0.377200000000     0.551200000000     0          
H696     H      0.570900000000     0.383900000000     0.529500000000     0          
O697     O      0.785700000000     0.874420000000     0.923480000000     0          
C698     C      0.736540000000     0.863800000000     0.970890000000     0          
H699     H      0.730200000000     0.865300000000     0.948500000000     0          
C700     C      0.713060000000     0.858900000000     0.995420000000     0          
H701     H      0.690700000000     0.856200000000     0.989300000000     0          
C702     C      0.616690000000     0.856300000000     0.091700000000     0          
C703     C      0.608400000000     0.867100000000     0.059300000000     0          
C704     C      0.576000000000     0.877200000000     0.051200000000     0          
H705     H      0.570900000000     0.883900000000     0.029500000000     0          
O706     O      0.285700000000     0.374420000000     0.923480000000     0          
C707     C      0.236540000000     0.363800000000     0.970890000000     0          
H708     H      0.230200000000     0.365300000000     0.948500000000     0          
C709     C      0.213060000000     0.358900000000     0.995420000000     0          
H710     H      0.190700000000     0.356200000000     0.989300000000     0          
C711     C      0.118800000000     0.333100000000     0.093900000000     0          
O712     O      0.285700000000     0.874420000000     0.423480000000     0          
C713     C      0.236540000000     0.863800000000     0.470890000000     0          
H714     H      0.230200000000     0.865300000000     0.448500000000     0          
C715     C      0.213060000000     0.858900000000     0.495420000000     0          
H716     H      0.190700000000     0.856200000000     0.489300000000     0          
C717     C      0.116690000000     0.856300000000     0.591700000000     0          
C718     C      0.108400000000     0.867100000000     0.559300000000     0          
C719     C      0.076000000000     0.877200000000     0.551200000000     0          
H720     H      0.070900000000     0.883900000000     0.529500000000     0          
O721     O      0.423480000000     0.374420000000     0.785700000000     0          
C722     C      0.470890000000     0.363800000000     0.736540000000     0          
H723     H      0.448500000000     0.365300000000     0.730200000000     0          
C724     C      0.495420000000     0.358900000000     0.713060000000     0          
H725     H      0.489300000000     0.356200000000     0.690700000000     0          
C726     C      0.591700000000     0.356300000000     0.616690000000     0          
C727     C      0.559300000000     0.367100000000     0.608400000000     0          
C728     C      0.551200000000     0.377200000000     0.576000000000     0          
H729     H      0.529500000000     0.383900000000     0.570900000000     0          
O730     O      0.423480000000     0.874420000000     0.285700000000     0          
C731     C      0.470890000000     0.863800000000     0.236540000000     0          
H732     H      0.448500000000     0.865300000000     0.230200000000     0          
C733     C      0.495420000000     0.858900000000     0.213060000000     0          
H734     H      0.489300000000     0.856200000000     0.190700000000     0          
C735     C      0.591700000000     0.856300000000     0.116690000000     0          
C736     C      0.559300000000     0.867100000000     0.108400000000     0          
C737     C      0.551200000000     0.877200000000     0.076000000000     0          
H738     H      0.529500000000     0.883900000000     0.070900000000     0          
O739     O      0.923480000000     0.374420000000     0.285700000000     0          
C740     C      0.970890000000     0.363800000000     0.236540000000     0          
H741     H      0.948500000000     0.365300000000     0.230200000000     0          
C742     C      0.995420000000     0.358900000000     0.213060000000     0          
H743     H      0.989300000000     0.356200000000     0.190700000000     0          
C744     C      0.093900000000     0.333100000000     0.118800000000     0          
O745     O      0.923480000000     0.874420000000     0.785700000000     0          
C746     C      0.970890000000     0.863800000000     0.736540000000     0          
H747     H      0.948500000000     0.865300000000     0.730200000000     0          
C748     C      0.995420000000     0.858900000000     0.713060000000     0          
H749     H      0.989300000000     0.856200000000     0.690700000000     0          
C750     C      0.091700000000     0.856300000000     0.616690000000     0          
C751     C      0.059300000000     0.867100000000     0.608400000000     0          
C752     C      0.051200000000     0.877200000000     0.576000000000     0          
H753     H      0.029500000000     0.883900000000     0.570900000000     0          
O754     O      0.826520000000     0.375580000000     0.285700000000     0          
C755     C      0.779110000000     0.386200000000     0.236540000000     0          
H756     H      0.801500000000     0.384700000000     0.230200000000     0          
C757     C      0.754580000000     0.391100000000     0.213060000000     0          
H758     H      0.760700000000     0.393800000000     0.190700000000     0          
C759     C      0.656100000000     0.416900000000     0.118800000000     0          
O760     O      0.826520000000     0.875580000000     0.785700000000     0          
C761     C      0.779110000000     0.886200000000     0.736540000000     0          
H762     H      0.801500000000     0.884700000000     0.730200000000     0          
C763     C      0.754580000000     0.891100000000     0.713060000000     0          
H764     H      0.760700000000     0.893800000000     0.690700000000     0          
C765     C      0.658300000000     0.893700000000     0.616690000000     0          
C766     C      0.690700000000     0.882900000000     0.608400000000     0          
C767     C      0.698800000000     0.872800000000     0.576000000000     0          
H768     H      0.720500000000     0.866100000000     0.570900000000     0          
O769     O      0.326520000000     0.375580000000     0.785700000000     0          
C770     C      0.279110000000     0.386200000000     0.736540000000     0          
H771     H      0.301500000000     0.384700000000     0.730200000000     0          
C772     C      0.254580000000     0.391100000000     0.713060000000     0          
H773     H      0.260700000000     0.393800000000     0.690700000000     0          
C774     C      0.156100000000     0.416900000000     0.618800000000     0          
O775     O      0.326520000000     0.875580000000     0.285700000000     0          
C776     C      0.279110000000     0.886200000000     0.236540000000     0          
H777     H      0.301500000000     0.884700000000     0.230200000000     0          
C778     C      0.254580000000     0.891100000000     0.213060000000     0          
H779     H      0.260700000000     0.893800000000     0.190700000000     0          
C780     C      0.156100000000     0.916900000000     0.118800000000     0          
O781     O      0.326520000000     0.874420000000     0.464300000000     0          
C782     C      0.279110000000     0.863800000000     0.513460000000     0          
H783     H      0.301500000000     0.865300000000     0.519800000000     0          
C784     C      0.254580000000     0.858900000000     0.536940000000     0          
H785     H      0.260700000000     0.856200000000     0.559300000000     0          
C786     C      0.156100000000     0.833100000000     0.631200000000     0          
O787     O      0.326520000000     0.374420000000     0.964300000000     0          
C788     C      0.279110000000     0.363800000000     0.013460000000     0          
H789     H      0.301500000000     0.365300000000     0.019800000000     0          
C790     C      0.254580000000     0.358900000000     0.036940000000     0          
H791     H      0.260700000000     0.356200000000     0.059300000000     0          
C792     C      0.158300000000     0.356300000000     0.133310000000     0          
C793     C      0.190700000000     0.367100000000     0.141600000000     0          
C794     C      0.198800000000     0.377200000000     0.174000000000     0          
H795     H      0.220500000000     0.383900000000     0.179100000000     0          
O796     O      0.826520000000     0.874420000000     0.964300000000     0          
C797     C      0.779110000000     0.863800000000     0.013460000000     0          
H798     H      0.801500000000     0.865300000000     0.019800000000     0          
C799     C      0.754580000000     0.858900000000     0.036940000000     0          
H800     H      0.760700000000     0.856200000000     0.059300000000     0          
C801     C      0.656100000000     0.833100000000     0.131200000000     0          
O802     O      0.826520000000     0.374420000000     0.464300000000     0          
C803     C      0.779110000000     0.363800000000     0.513460000000     0          
H804     H      0.801500000000     0.365300000000     0.519800000000     0          
C805     C      0.754580000000     0.358900000000     0.536940000000     0          
H806     H      0.760700000000     0.356200000000     0.559300000000     0          
C807     C      0.656100000000     0.333100000000     0.631200000000     0          
O808     O      0.923480000000     0.875580000000     0.964300000000     0          
C809     C      0.970890000000     0.886200000000     0.013460000000     0          
H810     H      0.948500000000     0.884700000000     0.019800000000     0          
C811     C      0.995420000000     0.891100000000     0.036940000000     0          
H812     H      0.989300000000     0.893800000000     0.059300000000     0          
C813     C      0.091700000000     0.893700000000     0.133310000000     0          
C814     C      0.059300000000     0.882900000000     0.141600000000     0          
C815     C      0.051200000000     0.872800000000     0.174000000000     0          
H816     H      0.029500000000     0.866100000000     0.179100000000     0          
O817     O      0.923480000000     0.375580000000     0.464300000000     0          
C818     C      0.970890000000     0.386200000000     0.513460000000     0          
H819     H      0.948500000000     0.384700000000     0.519800000000     0          
C820     C      0.995420000000     0.391100000000     0.536940000000     0          
H821     H      0.989300000000     0.393800000000     0.559300000000     0          
C822     C      0.091700000000     0.393700000000     0.633310000000     0          
C823     C      0.059300000000     0.382900000000     0.641600000000     0          
C824     C      0.051200000000     0.372800000000     0.674000000000     0          
H825     H      0.029500000000     0.366100000000     0.679100000000     0          
O826     O      0.423480000000     0.875580000000     0.464300000000     0          
C827     C      0.470890000000     0.886200000000     0.513460000000     0          
H828     H      0.448500000000     0.884700000000     0.519800000000     0          
C829     C      0.495420000000     0.891100000000     0.536940000000     0          
H830     H      0.489300000000     0.893800000000     0.559300000000     0          
C831     C      0.593900000000     0.916900000000     0.631200000000     0          
O832     O      0.423480000000     0.375580000000     0.964300000000     0          
C833     C      0.470890000000     0.386200000000     0.013460000000     0          
H834     H      0.448500000000     0.384700000000     0.019800000000     0          
C835     C      0.495420000000     0.391100000000     0.036940000000     0          
H836     H      0.489300000000     0.393800000000     0.059300000000     0          
C837     C      0.591700000000     0.393700000000     0.133310000000     0          
C838     C      0.559300000000     0.382900000000     0.141600000000     0          
C839     C      0.551200000000     0.372800000000     0.174000000000     0          
H840     H      0.529500000000     0.366100000000     0.179100000000     0          
O841     O      0.785700000000     0.423480000000     0.374420000000     0          
C842     C      0.736540000000     0.470890000000     0.363800000000     0          
H843     H      0.730200000000     0.448500000000     0.365300000000     0          
C844     C      0.713060000000     0.495420000000     0.358900000000     0          
H845     H      0.690700000000     0.489300000000     0.356200000000     0          
C846     C      0.616690000000     0.591700000000     0.356300000000     0          
C847     C      0.608400000000     0.559300000000     0.367100000000     0          
C848     C      0.576000000000     0.551200000000     0.377200000000     0          
H849     H      0.570900000000     0.529500000000     0.383900000000     0          
O850     O      0.785700000000     0.923480000000     0.874420000000     0          
C851     C      0.736540000000     0.970890000000     0.863800000000     0          
H852     H      0.730200000000     0.948500000000     0.865300000000     0          
C853     C      0.713060000000     0.995420000000     0.858900000000     0          
H854     H      0.690700000000     0.989300000000     0.856200000000     0          
C855     C      0.616690000000     0.091700000000     0.856300000000     0          
C856     C      0.608400000000     0.059300000000     0.867100000000     0          
C857     C      0.576000000000     0.051200000000     0.877200000000     0          
H858     H      0.570900000000     0.029500000000     0.883900000000     0          
O859     O      0.285700000000     0.423480000000     0.874420000000     0          
C860     C      0.236540000000     0.470890000000     0.863800000000     0          
H861     H      0.230200000000     0.448500000000     0.865300000000     0          
C862     C      0.213060000000     0.495420000000     0.858900000000     0          
H863     H      0.190700000000     0.489300000000     0.856200000000     0          
C864     C      0.118800000000     0.593900000000     0.833100000000     0          
O865     O      0.285700000000     0.923480000000     0.374420000000     0          
C866     C      0.236540000000     0.970890000000     0.363800000000     0          
H867     H      0.230200000000     0.948500000000     0.365300000000     0          
C868     C      0.213060000000     0.995420000000     0.358900000000     0          
H869     H      0.190700000000     0.989300000000     0.356200000000     0          
C870     C      0.116690000000     0.091700000000     0.356300000000     0          
C871     C      0.108400000000     0.059300000000     0.367100000000     0          
C872     C      0.076000000000     0.051200000000     0.377200000000     0          
H873     H      0.070900000000     0.029500000000     0.383900000000     0          
O874     O      0.285700000000     0.826520000000     0.375580000000     0          
C875     C      0.236540000000     0.779110000000     0.386200000000     0          
H876     H      0.230200000000     0.801500000000     0.384700000000     0          
C877     C      0.213060000000     0.754580000000     0.391100000000     0          
H878     H      0.190700000000     0.760700000000     0.393800000000     0          
C879     C      0.118800000000     0.656100000000     0.416900000000     0          
O880     O      0.285700000000     0.326520000000     0.875580000000     0          
C881     C      0.236540000000     0.279110000000     0.886200000000     0          
H882     H      0.230200000000     0.301500000000     0.884700000000     0          
C883     C      0.213060000000     0.254580000000     0.891100000000     0          
H884     H      0.190700000000     0.260700000000     0.893800000000     0          
C885     C      0.118800000000     0.156100000000     0.916900000000     0          
O886     O      0.785700000000     0.826520000000     0.875580000000     0          
C887     C      0.736540000000     0.779110000000     0.886200000000     0          
H888     H      0.730200000000     0.801500000000     0.884700000000     0          
C889     C      0.713060000000     0.754580000000     0.891100000000     0          
H890     H      0.690700000000     0.760700000000     0.893800000000     0          
C891     C      0.616690000000     0.658300000000     0.893700000000     0          
C892     C      0.608400000000     0.690700000000     0.882900000000     0          
C893     C      0.576000000000     0.698800000000     0.872800000000     0          
H894     H      0.570900000000     0.720500000000     0.866100000000     0          
O895     O      0.785700000000     0.326520000000     0.375580000000     0          
C896     C      0.736540000000     0.279110000000     0.386200000000     0          
H897     H      0.730200000000     0.301500000000     0.384700000000     0          
C898     C      0.713060000000     0.254580000000     0.391100000000     0          
H899     H      0.690700000000     0.260700000000     0.393800000000     0          
C900     C      0.618800000000     0.156100000000     0.416900000000     0          
O901     O      0.464300000000     0.326520000000     0.874420000000     0          
C902     C      0.513460000000     0.279110000000     0.863800000000     0          
H903     H      0.519800000000     0.301500000000     0.865300000000     0          
C904     C      0.536940000000     0.254580000000     0.858900000000     0          
H905     H      0.559300000000     0.260700000000     0.856200000000     0          
C906     C      0.631200000000     0.156100000000     0.833100000000     0          
O907     O      0.464300000000     0.826520000000     0.374420000000     0          
C908     C      0.513460000000     0.779110000000     0.363800000000     0          
H909     H      0.519800000000     0.801500000000     0.365300000000     0          
C910     C      0.536940000000     0.754580000000     0.358900000000     0          
H911     H      0.559300000000     0.760700000000     0.356200000000     0          
C912     C      0.631200000000     0.656100000000     0.333100000000     0          
O913     O      0.964300000000     0.326520000000     0.374420000000     0          
C914     C      0.013460000000     0.279110000000     0.363800000000     0          
H915     H      0.019800000000     0.301500000000     0.365300000000     0          
C916     C      0.036940000000     0.254580000000     0.358900000000     0          
H917     H      0.059300000000     0.260700000000     0.356200000000     0          
C918     C      0.131200000000     0.156100000000     0.333100000000     0          
O919     O      0.964300000000     0.826520000000     0.874420000000     0          
C920     C      0.013460000000     0.779110000000     0.863800000000     0          
H921     H      0.019800000000     0.801500000000     0.865300000000     0          
C922     C      0.036940000000     0.754580000000     0.858900000000     0          
H923     H      0.059300000000     0.760700000000     0.856200000000     0          
C924     C      0.133310000000     0.658300000000     0.856300000000     0          
C925     C      0.141600000000     0.690700000000     0.867100000000     0          
C926     C      0.174000000000     0.698800000000     0.877200000000     0          
H927     H      0.179100000000     0.720500000000     0.883900000000     0          
O928     O      0.964300000000     0.923480000000     0.875580000000     0          
C929     C      0.013460000000     0.970890000000     0.886200000000     0          
H930     H      0.019800000000     0.948500000000     0.884700000000     0          
C931     C      0.036940000000     0.995420000000     0.891100000000     0          
H932     H      0.059300000000     0.989300000000     0.893800000000     0          
C933     C      0.133310000000     0.091700000000     0.893700000000     0          
C934     C      0.141600000000     0.059300000000     0.882900000000     0          
C935     C      0.174000000000     0.051200000000     0.872800000000     0          
H936     H      0.179100000000     0.029500000000     0.866100000000     0          
O937     O      0.964300000000     0.423480000000     0.375580000000     0          
C938     C      0.013460000000     0.470890000000     0.386200000000     0          
H939     H      0.019800000000     0.448500000000     0.384700000000     0          
C940     C      0.036940000000     0.495420000000     0.391100000000     0          
H941     H      0.059300000000     0.489300000000     0.393800000000     0          
C942     C      0.133310000000     0.591700000000     0.393700000000     0          
C943     C      0.141600000000     0.559300000000     0.382900000000     0          
C944     C      0.174000000000     0.551200000000     0.372800000000     0          
H945     H      0.179100000000     0.529500000000     0.366100000000     0          
O946     O      0.464300000000     0.923480000000     0.375580000000     0          
C947     C      0.513460000000     0.970890000000     0.386200000000     0          
H948     H      0.519800000000     0.948500000000     0.384700000000     0          
C949     C      0.536940000000     0.995420000000     0.391100000000     0          
H950     H      0.559300000000     0.989300000000     0.393800000000     0          
C951     C      0.633310000000     0.091700000000     0.393700000000     0          
C952     C      0.641600000000     0.059300000000     0.382900000000     0          
C953     C      0.674000000000     0.051200000000     0.372800000000     0          
H954     H      0.679100000000     0.029500000000     0.366100000000     0          
O955     O      0.464300000000     0.423480000000     0.875580000000     0          
C956     C      0.513460000000     0.470890000000     0.886200000000     0          
H957     H      0.519800000000     0.448500000000     0.884700000000     0          
C958     C      0.536940000000     0.495420000000     0.891100000000     0          
H959     H      0.559300000000     0.489300000000     0.893800000000     0          
C960     C      0.631200000000     0.593900000000     0.916900000000     0          
O961     O      0.374420000000     0.785700000000     0.423480000000     0          
C962     C      0.363800000000     0.736540000000     0.470890000000     0          
H963     H      0.365300000000     0.730200000000     0.448500000000     0          
C964     C      0.358900000000     0.713060000000     0.495420000000     0          
H965     H      0.356200000000     0.690700000000     0.489300000000     0          
C966     C      0.333100000000     0.618800000000     0.593900000000     0          
O967     O      0.374420000000     0.285700000000     0.923480000000     0          
C968     C      0.363800000000     0.236540000000     0.970890000000     0          
H969     H      0.365300000000     0.230200000000     0.948500000000     0          
C970     C      0.358900000000     0.213060000000     0.995420000000     0          
H971     H      0.356200000000     0.190700000000     0.989300000000     0          
C972     C      0.356300000000     0.116690000000     0.091700000000     0          
C973     C      0.367100000000     0.108400000000     0.059300000000     0          
C974     C      0.377200000000     0.076000000000     0.051200000000     0          
H975     H      0.383900000000     0.070900000000     0.029500000000     0          
O976     O      0.874420000000     0.785700000000     0.923480000000     0          
C977     C      0.863800000000     0.736540000000     0.970890000000     0          
H978     H      0.865300000000     0.730200000000     0.948500000000     0          
C979     C      0.858900000000     0.713060000000     0.995420000000     0          
H980     H      0.856200000000     0.690700000000     0.989300000000     0          
C981     C      0.856300000000     0.616690000000     0.091700000000     0          
C982     C      0.867100000000     0.608400000000     0.059300000000     0          
C983     C      0.877200000000     0.576000000000     0.051200000000     0          
H984     H      0.883900000000     0.570900000000     0.029500000000     0          
O985     O      0.874420000000     0.285700000000     0.423480000000     0          
C986     C      0.863800000000     0.236540000000     0.470890000000     0          
H987     H      0.865300000000     0.230200000000     0.448500000000     0          
C988     C      0.858900000000     0.213060000000     0.495420000000     0          
H989     H      0.856200000000     0.190700000000     0.489300000000     0          
C990     C      0.833100000000     0.118800000000     0.593900000000     0          
O991     O      0.375580000000     0.285700000000     0.826520000000     0          
C992     C      0.386200000000     0.236540000000     0.779110000000     0          
H993     H      0.384700000000     0.230200000000     0.801500000000     0          
C994     C      0.391100000000     0.213060000000     0.754580000000     0          
H995     H      0.393800000000     0.190700000000     0.760700000000     0          
C996     C      0.416900000000     0.118800000000     0.656100000000     0          
O997     O      0.375580000000     0.785700000000     0.326520000000     0          
C998     C      0.386200000000     0.736540000000     0.279110000000     0          
H999     H      0.384700000000     0.730200000000     0.301500000000     0          
C1000    C      0.391100000000     0.713060000000     0.254580000000     0          
H1001    H      0.393800000000     0.690700000000     0.260700000000     0          
C1002    C      0.416900000000     0.618800000000     0.156100000000     0          
O1003    O      0.875580000000     0.285700000000     0.326520000000     0          
C1004    C      0.886200000000     0.236540000000     0.279110000000     0          
H1005    H      0.884700000000     0.230200000000     0.301500000000     0          
C1006    C      0.891100000000     0.213060000000     0.254580000000     0          
H1007    H      0.893800000000     0.190700000000     0.260700000000     0          
C1008    C      0.893700000000     0.116690000000     0.158300000000     0          
C1009    C      0.882900000000     0.108400000000     0.190700000000     0          
C1010    C      0.872800000000     0.076000000000     0.198800000000     0          
H1011    H      0.866100000000     0.070900000000     0.220500000000     0          
O1012    O      0.875580000000     0.785700000000     0.826520000000     0          
C1013    C      0.886200000000     0.736540000000     0.779110000000     0          
H1014    H      0.884700000000     0.730200000000     0.801500000000     0          
C1015    C      0.891100000000     0.713060000000     0.754580000000     0          
H1016    H      0.893800000000     0.690700000000     0.760700000000     0          
C1017    C      0.916900000000     0.618800000000     0.656100000000     0          
O1018    O      0.874420000000     0.464300000000     0.326520000000     0          
C1019    C      0.863800000000     0.513460000000     0.279110000000     0          
H1020    H      0.865300000000     0.519800000000     0.301500000000     0          
C1021    C      0.858900000000     0.536940000000     0.254580000000     0          
H1022    H      0.856200000000     0.559300000000     0.260700000000     0          
C1023    C      0.833100000000     0.631200000000     0.156100000000     0          
O1024    O      0.874420000000     0.964300000000     0.826520000000     0          
C1025    C      0.863800000000     0.013460000000     0.779110000000     0          
H1026    H      0.865300000000     0.019800000000     0.801500000000     0          
C1027    C      0.858900000000     0.036940000000     0.754580000000     0          
H1028    H      0.856200000000     0.059300000000     0.760700000000     0          
C1029    C      0.856300000000     0.133310000000     0.658300000000     0          
C1030    C      0.867100000000     0.141600000000     0.690700000000     0          
C1031    C      0.877200000000     0.174000000000     0.698800000000     0          
H1032    H      0.883900000000     0.179100000000     0.720500000000     0          
O1033    O      0.374420000000     0.464300000000     0.826520000000     0          
C1034    C      0.363800000000     0.513460000000     0.779110000000     0          
H1035    H      0.365300000000     0.519800000000     0.801500000000     0          
C1036    C      0.358900000000     0.536940000000     0.754580000000     0          
H1037    H      0.356200000000     0.559300000000     0.760700000000     0          
C1038    C      0.356300000000     0.633310000000     0.658300000000     0          
C1039    C      0.367100000000     0.641600000000     0.690700000000     0          
C1040    C      0.377200000000     0.674000000000     0.698800000000     0          
H1041    H      0.383900000000     0.679100000000     0.720500000000     0          
O1042    O      0.374420000000     0.964300000000     0.326520000000     0          
C1043    C      0.363800000000     0.013460000000     0.279110000000     0          
H1044    H      0.365300000000     0.019800000000     0.301500000000     0          
C1045    C      0.358900000000     0.036940000000     0.254580000000     0          
H1046    H      0.356200000000     0.059300000000     0.260700000000     0          
C1047    C      0.333100000000     0.131200000000     0.156100000000     0          
O1048    O      0.875580000000     0.964300000000     0.923480000000     0          
C1049    C      0.886200000000     0.013460000000     0.970890000000     0          
H1050    H      0.884700000000     0.019800000000     0.948500000000     0          
C1051    C      0.891100000000     0.036940000000     0.995420000000     0          
H1052    H      0.893800000000     0.059300000000     0.989300000000     0          
C1053    C      0.916900000000     0.131200000000     0.093900000000     0          
O1054    O      0.875580000000     0.464300000000     0.423480000000     0          
C1055    C      0.886200000000     0.513460000000     0.470890000000     0          
H1056    H      0.884700000000     0.519800000000     0.448500000000     0          
C1057    C      0.891100000000     0.536940000000     0.495420000000     0          
H1058    H      0.893800000000     0.559300000000     0.489300000000     0          
C1059    C      0.893700000000     0.633310000000     0.591700000000     0          
C1060    C      0.882900000000     0.641600000000     0.559300000000     0          
C1061    C      0.872800000000     0.674000000000     0.551200000000     0          
H1062    H      0.866100000000     0.679100000000     0.529500000000     0          
O1063    O      0.375580000000     0.964300000000     0.423480000000     0          
C1064    C      0.386200000000     0.013460000000     0.470890000000     0          
H1065    H      0.384700000000     0.019800000000     0.448500000000     0          
C1066    C      0.391100000000     0.036940000000     0.495420000000     0          
H1067    H      0.393800000000     0.059300000000     0.489300000000     0          
C1068    C      0.393700000000     0.133310000000     0.591700000000     0          
C1069    C      0.382900000000     0.141600000000     0.559300000000     0          
C1070    C      0.372800000000     0.174000000000     0.551200000000     0          
H1071    H      0.366100000000     0.179100000000     0.529500000000     0          
O1072    O      0.375580000000     0.464300000000     0.923480000000     0          
C1073    C      0.386200000000     0.513460000000     0.970890000000     0          
H1074    H      0.384700000000     0.519800000000     0.948500000000     0          
C1075    C      0.391100000000     0.536940000000     0.995420000000     0          
H1076    H      0.393800000000     0.559300000000     0.989300000000     0          
C1077    C      0.393700000000     0.633310000000     0.091700000000     0          
C1078    C      0.382900000000     0.641600000000     0.059300000000     0          
C1079    C      0.372800000000     0.674000000000     0.051200000000     0          
H1080    H      0.366100000000     0.679100000000     0.029500000000     0          
O1081    O      0.624420000000     0.173480000000     0.714300000000     0          
C1082    C      0.613800000000     0.220890000000     0.763460000000     0          
H1083    H      0.615300000000     0.198500000000     0.769800000000     0          
C1084    C      0.608900000000     0.245420000000     0.786940000000     0          
H1085    H      0.606200000000     0.239300000000     0.809300000000     0          
C1086    C      0.606300000000     0.341700000000     0.883310000000     0          
C1087    C      0.617100000000     0.309300000000     0.891600000000     0          
C1088    C      0.627200000000     0.301200000000     0.924000000000     0          
H1089    H      0.633900000000     0.279500000000     0.929100000000     0          
O1090    O      0.624420000000     0.673480000000     0.214300000000     0          
C1091    C      0.613800000000     0.720890000000     0.263460000000     0          
H1092    H      0.615300000000     0.698500000000     0.269800000000     0          
C1093    C      0.608900000000     0.745420000000     0.286940000000     0          
H1094    H      0.606200000000     0.739300000000     0.309300000000     0          
C1095    C      0.606300000000     0.841700000000     0.383310000000     0          
C1096    C      0.617100000000     0.809300000000     0.391600000000     0          
C1097    C      0.627200000000     0.801200000000     0.424000000000     0          
H1098    H      0.633900000000     0.779500000000     0.429100000000     0          
O1099    O      0.124420000000     0.173480000000     0.214300000000     0          
C1100    C      0.113800000000     0.220890000000     0.263460000000     0          
H1101    H      0.115300000000     0.198500000000     0.269800000000     0          
C1102    C      0.108900000000     0.245420000000     0.286940000000     0          
H1103    H      0.106200000000     0.239300000000     0.309300000000     0          
C1104    C      0.106300000000     0.341700000000     0.383310000000     0          
C1105    C      0.117100000000     0.309300000000     0.391600000000     0          
C1106    C      0.127200000000     0.301200000000     0.424000000000     0          
H1107    H      0.133900000000     0.279500000000     0.429100000000     0          
O1108    O      0.124420000000     0.673480000000     0.714300000000     0          
C1109    C      0.113800000000     0.720890000000     0.763460000000     0          
H1110    H      0.115300000000     0.698500000000     0.769800000000     0          
C1111    C      0.108900000000     0.745420000000     0.786940000000     0          
H1112    H      0.106200000000     0.739300000000     0.809300000000     0          
C1113    C      0.083100000000     0.843900000000     0.881200000000     0          
O1114    O      0.625580000000     0.576520000000     0.214300000000     0          
C1115    C      0.636200000000     0.529110000000     0.263460000000     0          
H1116    H      0.634700000000     0.551500000000     0.269800000000     0          
C1117    C      0.641100000000     0.504580000000     0.286940000000     0          
H1118    H      0.643800000000     0.510700000000     0.309300000000     0          
C1119    C      0.643700000000     0.408300000000     0.383310000000     0          
C1120    C      0.632900000000     0.440700000000     0.391600000000     0          
C1121    C      0.622800000000     0.448800000000     0.424000000000     0          
H1122    H      0.616100000000     0.470500000000     0.429100000000     0          
O1123    O      0.625580000000     0.076520000000     0.714300000000     0          
C1124    C      0.636200000000     0.029110000000     0.763460000000     0          
H1125    H      0.634700000000     0.051500000000     0.769800000000     0          
C1126    C      0.641100000000     0.004580000000     0.786940000000     0          
H1127    H      0.643800000000     0.010700000000     0.809300000000     0          
C1128    C      0.643700000000     0.908300000000     0.883310000000     0          
C1129    C      0.632900000000     0.940700000000     0.891600000000     0          
C1130    C      0.622800000000     0.948800000000     0.924000000000     0          
H1131    H      0.616100000000     0.970500000000     0.929100000000     0          
O1132    O      0.125580000000     0.576520000000     0.714300000000     0          
C1133    C      0.136200000000     0.529110000000     0.763460000000     0          
H1134    H      0.134700000000     0.551500000000     0.769800000000     0          
C1135    C      0.141100000000     0.504580000000     0.786940000000     0          
H1136    H      0.143800000000     0.510700000000     0.809300000000     0          
C1137    C      0.166900000000     0.406100000000     0.881200000000     0          
O1138    O      0.125580000000     0.076520000000     0.214300000000     0          
C1139    C      0.136200000000     0.029110000000     0.263460000000     0          
H1140    H      0.134700000000     0.051500000000     0.269800000000     0          
C1141    C      0.141100000000     0.004580000000     0.286940000000     0          
H1142    H      0.143800000000     0.010700000000     0.309300000000     0          
C1143    C      0.143700000000     0.908300000000     0.383310000000     0          
C1144    C      0.132900000000     0.940700000000     0.391600000000     0          
C1145    C      0.122800000000     0.948800000000     0.424000000000     0          
H1146    H      0.116100000000     0.970500000000     0.429100000000     0          
O1147    O      0.124420000000     0.076520000000     0.035700000000     0          
C1148    C      0.113800000000     0.029110000000     0.986540000000     0          
H1149    H      0.115300000000     0.051500000000     0.980200000000     0          
C1150    C      0.108900000000     0.004580000000     0.963060000000     0          
H1151    H      0.106200000000     0.010700000000     0.940700000000     0          
C1152    C      0.106300000000     0.908300000000     0.866690000000     0          
C1153    C      0.117100000000     0.940700000000     0.858400000000     0          
C1154    C      0.127200000000     0.948800000000     0.826000000000     0          
H1155    H      0.133900000000     0.970500000000     0.820900000000     0          
O1156    O      0.124420000000     0.576520000000     0.535700000000     0          
C1157    C      0.113800000000     0.529110000000     0.486540000000     0          
H1158    H      0.115300000000     0.551500000000     0.480200000000     0          
C1159    C      0.108900000000     0.504580000000     0.463060000000     0          
H1160    H      0.106200000000     0.510700000000     0.440700000000     0          
C1161    C      0.083100000000     0.406100000000     0.368800000000     0          
O1162    O      0.624420000000     0.076520000000     0.535700000000     0          
C1163    C      0.613800000000     0.029110000000     0.486540000000     0          
H1164    H      0.615300000000     0.051500000000     0.480200000000     0          
C1165    C      0.608900000000     0.004580000000     0.463060000000     0          
H1166    H      0.606200000000     0.010700000000     0.440700000000     0          
C1167    C      0.583100000000     0.906100000000     0.368800000000     0          
O1168    O      0.624420000000     0.576520000000     0.035700000000     0          
C1169    C      0.613800000000     0.529110000000     0.986540000000     0          
H1170    H      0.615300000000     0.551500000000     0.980200000000     0          
C1171    C      0.608900000000     0.504580000000     0.963060000000     0          
H1172    H      0.606200000000     0.510700000000     0.940700000000     0          
C1173    C      0.583100000000     0.406100000000     0.868800000000     0          
O1174    O      0.125580000000     0.673480000000     0.535700000000     0          
C1175    C      0.136200000000     0.720890000000     0.486540000000     0          
H1176    H      0.134700000000     0.698500000000     0.480200000000     0          
C1177    C      0.141100000000     0.745420000000     0.463060000000     0          
H1178    H      0.143800000000     0.739300000000     0.440700000000     0          
C1179    C      0.166900000000     0.843900000000     0.368800000000     0          
O1180    O      0.125580000000     0.173480000000     0.035700000000     0          
C1181    C      0.136200000000     0.220890000000     0.986540000000     0          
H1182    H      0.134700000000     0.198500000000     0.980200000000     0          
C1183    C      0.141100000000     0.245420000000     0.963060000000     0          
H1184    H      0.143800000000     0.239300000000     0.940700000000     0          
C1185    C      0.143700000000     0.341700000000     0.866690000000     0          
C1186    C      0.132900000000     0.309300000000     0.858400000000     0          
C1187    C      0.122800000000     0.301200000000     0.826000000000     0          
H1188    H      0.116100000000     0.279500000000     0.820900000000     0          
O1189    O      0.625580000000     0.673480000000     0.035700000000     0          
C1190    C      0.636200000000     0.720890000000     0.986540000000     0          
H1191    H      0.634700000000     0.698500000000     0.980200000000     0          
C1192    C      0.641100000000     0.745420000000     0.963060000000     0          
H1193    H      0.643800000000     0.739300000000     0.940700000000     0          
C1194    C      0.666900000000     0.843900000000     0.868800000000     0          
O1195    O      0.625580000000     0.173480000000     0.535700000000     0          
C1196    C      0.636200000000     0.220890000000     0.486540000000     0          
H1197    H      0.634700000000     0.198500000000     0.480200000000     0          
C1198    C      0.641100000000     0.245420000000     0.463060000000     0          
H1199    H      0.643800000000     0.239300000000     0.440700000000     0          
C1200    C      0.666900000000     0.343900000000     0.368800000000     0          
O1201    O      0.673480000000     0.535700000000     0.125580000000     0          
C1202    C      0.720890000000     0.486540000000     0.136200000000     0          
H1203    H      0.698500000000     0.480200000000     0.134700000000     0          
C1204    C      0.745420000000     0.463060000000     0.141100000000     0          
H1205    H      0.739300000000     0.440700000000     0.143800000000     0          
C1206    C      0.843900000000     0.368800000000     0.166900000000     0          
O1207    O      0.673480000000     0.035700000000     0.625580000000     0          
C1208    C      0.720890000000     0.986540000000     0.636200000000     0          
H1209    H      0.698500000000     0.980200000000     0.634700000000     0          
C1210    C      0.745420000000     0.963060000000     0.641100000000     0          
H1211    H      0.739300000000     0.940700000000     0.643800000000     0          
C1212    C      0.841700000000     0.866690000000     0.643700000000     0          
C1213    C      0.809300000000     0.858400000000     0.632900000000     0          
C1214    C      0.801200000000     0.826000000000     0.622800000000     0          
H1215    H      0.779500000000     0.820900000000     0.616100000000     0          
O1216    O      0.173480000000     0.535700000000     0.625580000000     0          
C1217    C      0.220890000000     0.486540000000     0.636200000000     0          
H1218    H      0.198500000000     0.480200000000     0.634700000000     0          
C1219    C      0.245420000000     0.463060000000     0.641100000000     0          
H1220    H      0.239300000000     0.440700000000     0.643800000000     0          
C1221    C      0.341700000000     0.366690000000     0.643700000000     0          
C1222    C      0.309300000000     0.358400000000     0.632900000000     0          
C1223    C      0.301200000000     0.326000000000     0.622800000000     0          
H1224    H      0.279500000000     0.320900000000     0.616100000000     0          
O1225    O      0.173480000000     0.035700000000     0.125580000000     0          
C1226    C      0.220890000000     0.986540000000     0.136200000000     0          
H1227    H      0.198500000000     0.980200000000     0.134700000000     0          
C1228    C      0.245420000000     0.963060000000     0.141100000000     0          
H1229    H      0.239300000000     0.940700000000     0.143800000000     0          
C1230    C      0.341700000000     0.866690000000     0.143700000000     0          
C1231    C      0.309300000000     0.858400000000     0.132900000000     0          
C1232    C      0.301200000000     0.826000000000     0.122800000000     0          
H1233    H      0.279500000000     0.820900000000     0.116100000000     0          
O1234    O      0.076520000000     0.035700000000     0.124420000000     0          
C1235    C      0.029110000000     0.986540000000     0.113800000000     0          
H1236    H      0.051500000000     0.980200000000     0.115300000000     0          
C1237    C      0.004580000000     0.963060000000     0.108900000000     0          
H1238    H      0.010700000000     0.940700000000     0.106200000000     0          
C1239    C      0.906100000000     0.868800000000     0.083100000000     0          
O1240    O      0.076520000000     0.535700000000     0.624420000000     0          
C1241    C      0.029110000000     0.486540000000     0.613800000000     0          
H1242    H      0.051500000000     0.480200000000     0.615300000000     0          
C1243    C      0.004580000000     0.463060000000     0.608900000000     0          
H1244    H      0.010700000000     0.440700000000     0.606200000000     0          
C1245    C      0.906100000000     0.368800000000     0.583100000000     0          
O1246    O      0.576520000000     0.035700000000     0.624420000000     0          
C1247    C      0.529110000000     0.986540000000     0.613800000000     0          
H1248    H      0.551500000000     0.980200000000     0.615300000000     0          
C1249    C      0.504580000000     0.963060000000     0.608900000000     0          
H1250    H      0.510700000000     0.940700000000     0.606200000000     0          
C1251    C      0.408300000000     0.866690000000     0.606300000000     0          
C1252    C      0.440700000000     0.858400000000     0.617100000000     0          
C1253    C      0.448800000000     0.826000000000     0.627200000000     0          
H1254    H      0.470500000000     0.820900000000     0.633900000000     0          
O1255    O      0.576520000000     0.535700000000     0.124420000000     0          
C1256    C      0.529110000000     0.486540000000     0.113800000000     0          
H1257    H      0.551500000000     0.480200000000     0.115300000000     0          
C1258    C      0.504580000000     0.463060000000     0.108900000000     0          
H1259    H      0.510700000000     0.440700000000     0.106200000000     0          
C1260    C      0.408300000000     0.366690000000     0.106300000000     0          
C1261    C      0.440700000000     0.358400000000     0.117100000000     0          
C1262    C      0.448800000000     0.326000000000     0.127200000000     0          
H1263    H      0.470500000000     0.320900000000     0.133900000000     0          
O1264    O      0.576520000000     0.214300000000     0.625580000000     0          
C1265    C      0.529110000000     0.263460000000     0.636200000000     0          
H1266    H      0.551500000000     0.269800000000     0.634700000000     0          
C1267    C      0.504580000000     0.286940000000     0.641100000000     0          
H1268    H      0.510700000000     0.309300000000     0.643800000000     0          
C1269    C      0.406100000000     0.381200000000     0.666900000000     0          
O1270    O      0.576520000000     0.714300000000     0.125580000000     0          
C1271    C      0.529110000000     0.763460000000     0.136200000000     0          
H1272    H      0.551500000000     0.769800000000     0.134700000000     0          
C1273    C      0.504580000000     0.786940000000     0.141100000000     0          
H1274    H      0.510700000000     0.809300000000     0.143800000000     0          
C1275    C      0.406100000000     0.881200000000     0.166900000000     0          
O1276    O      0.076520000000     0.214300000000     0.125580000000     0          
C1277    C      0.029110000000     0.263460000000     0.136200000000     0          
H1278    H      0.051500000000     0.269800000000     0.134700000000     0          
C1279    C      0.004580000000     0.286940000000     0.141100000000     0          
H1280    H      0.010700000000     0.309300000000     0.143800000000     0          
C1281    C      0.908300000000     0.383310000000     0.143700000000     0          
C1282    C      0.940700000000     0.391600000000     0.132900000000     0          
C1283    C      0.948800000000     0.424000000000     0.122800000000     0          
H1284    H      0.970500000000     0.429100000000     0.116100000000     0          
O1285    O      0.076520000000     0.714300000000     0.625580000000     0          
C1286    C      0.029110000000     0.763460000000     0.636200000000     0          
H1287    H      0.051500000000     0.769800000000     0.634700000000     0          
C1288    C      0.004580000000     0.786940000000     0.641100000000     0          
H1289    H      0.010700000000     0.809300000000     0.643800000000     0          
C1290    C      0.906100000000     0.881200000000     0.666900000000     0          
O1291    O      0.173480000000     0.714300000000     0.624420000000     0          
C1292    C      0.220890000000     0.763460000000     0.613800000000     0          
H1293    H      0.198500000000     0.769800000000     0.615300000000     0          
C1294    C      0.245420000000     0.786940000000     0.608900000000     0          
H1295    H      0.239300000000     0.809300000000     0.606200000000     0          
C1296    C      0.343900000000     0.881200000000     0.583100000000     0          
O1297    O      0.173480000000     0.214300000000     0.124420000000     0          
C1298    C      0.220890000000     0.263460000000     0.113800000000     0          
H1299    H      0.198500000000     0.269800000000     0.115300000000     0          
C1300    C      0.245420000000     0.286940000000     0.108900000000     0          
H1301    H      0.239300000000     0.309300000000     0.106200000000     0          
C1302    C      0.343900000000     0.381200000000     0.083100000000     0          
O1303    O      0.673480000000     0.714300000000     0.124420000000     0          
C1304    C      0.720890000000     0.763460000000     0.113800000000     0          
H1305    H      0.698500000000     0.769800000000     0.115300000000     0          
C1306    C      0.745420000000     0.786940000000     0.108900000000     0          
H1307    H      0.739300000000     0.809300000000     0.106200000000     0          
C1308    C      0.841700000000     0.883310000000     0.106300000000     0          
C1309    C      0.809300000000     0.891600000000     0.117100000000     0          
C1310    C      0.801200000000     0.924000000000     0.127200000000     0          
H1311    H      0.779500000000     0.929100000000     0.133900000000     0          
O1312    O      0.673480000000     0.214300000000     0.624420000000     0          
C1313    C      0.720890000000     0.263460000000     0.613800000000     0          
H1314    H      0.698500000000     0.269800000000     0.615300000000     0          
C1315    C      0.745420000000     0.286940000000     0.608900000000     0          
H1316    H      0.739300000000     0.309300000000     0.606200000000     0          
C1317    C      0.841700000000     0.383310000000     0.606300000000     0          
C1318    C      0.809300000000     0.391600000000     0.617100000000     0          
C1319    C      0.801200000000     0.424000000000     0.627200000000     0          
H1320    H      0.779500000000     0.429100000000     0.633900000000     0          
O1321    O      0.035700000000     0.124420000000     0.076520000000     0          
C1322    C      0.986540000000     0.113800000000     0.029110000000     0          
H1323    H      0.980200000000     0.115300000000     0.051500000000     0          
C1324    C      0.963060000000     0.108900000000     0.004580000000     0          
H1325    H      0.940700000000     0.106200000000     0.010700000000     0          
C1326    C      0.868800000000     0.083100000000     0.906100000000     0          
O1327    O      0.035700000000     0.624420000000     0.576520000000     0          
C1328    C      0.986540000000     0.613800000000     0.529110000000     0          
H1329    H      0.980200000000     0.615300000000     0.551500000000     0          
C1330    C      0.963060000000     0.608900000000     0.504580000000     0          
H1331    H      0.940700000000     0.606200000000     0.510700000000     0          
C1332    C      0.866690000000     0.606300000000     0.408300000000     0          
C1333    C      0.858400000000     0.617100000000     0.440700000000     0          
C1334    C      0.826000000000     0.627200000000     0.448800000000     0          
H1335    H      0.820900000000     0.633900000000     0.470500000000     0          
O1336    O      0.535700000000     0.124420000000     0.576520000000     0          
C1337    C      0.486540000000     0.113800000000     0.529110000000     0          
H1338    H      0.480200000000     0.115300000000     0.551500000000     0          
C1339    C      0.463060000000     0.108900000000     0.504580000000     0          
H1340    H      0.440700000000     0.106200000000     0.510700000000     0          
C1341    C      0.366690000000     0.106300000000     0.408300000000     0          
C1342    C      0.358400000000     0.117100000000     0.440700000000     0          
C1343    C      0.326000000000     0.127200000000     0.448800000000     0          
H1344    H      0.320900000000     0.133900000000     0.470500000000     0          
O1345    O      0.535700000000     0.624420000000     0.076520000000     0          
C1346    C      0.486540000000     0.613800000000     0.029110000000     0          
H1347    H      0.480200000000     0.615300000000     0.051500000000     0          
C1348    C      0.463060000000     0.608900000000     0.004580000000     0          
H1349    H      0.440700000000     0.606200000000     0.010700000000     0          
C1350    C      0.366690000000     0.606300000000     0.908300000000     0          
C1351    C      0.358400000000     0.617100000000     0.940700000000     0          
C1352    C      0.326000000000     0.627200000000     0.948800000000     0          
H1353    H      0.320900000000     0.633900000000     0.970500000000     0          
O1354    O      0.535700000000     0.125580000000     0.673480000000     0          
C1355    C      0.486540000000     0.136200000000     0.720890000000     0          
H1356    H      0.480200000000     0.134700000000     0.698500000000     0          
C1357    C      0.463060000000     0.141100000000     0.745420000000     0          
H1358    H      0.440700000000     0.143800000000     0.739300000000     0          
C1359    C      0.368800000000     0.166900000000     0.843900000000     0          
O1360    O      0.535700000000     0.625580000000     0.173480000000     0          
C1361    C      0.486540000000     0.636200000000     0.220890000000     0          
H1362    H      0.480200000000     0.634700000000     0.198500000000     0          
C1363    C      0.463060000000     0.641100000000     0.245420000000     0          
H1364    H      0.440700000000     0.643800000000     0.239300000000     0          
C1365    C      0.368800000000     0.666900000000     0.343900000000     0          
O1366    O      0.035700000000     0.125580000000     0.173480000000     0          
C1367    C      0.986540000000     0.136200000000     0.220890000000     0          
H1368    H      0.980200000000     0.134700000000     0.198500000000     0          
C1369    C      0.963060000000     0.141100000000     0.245420000000     0          
H1370    H      0.940700000000     0.143800000000     0.239300000000     0          
C1371    C      0.866690000000     0.143700000000     0.341700000000     0          
C1372    C      0.858400000000     0.132900000000     0.309300000000     0          
C1373    C      0.826000000000     0.122800000000     0.301200000000     0          
H1374    H      0.820900000000     0.116100000000     0.279500000000     0          
O1375    O      0.035700000000     0.625580000000     0.673480000000     0          
C1376    C      0.986540000000     0.636200000000     0.720890000000     0          
H1377    H      0.980200000000     0.634700000000     0.698500000000     0          
C1378    C      0.963060000000     0.641100000000     0.745420000000     0          
H1379    H      0.940700000000     0.643800000000     0.739300000000     0          
C1380    C      0.866690000000     0.643700000000     0.841700000000     0          
C1381    C      0.858400000000     0.632900000000     0.809300000000     0          
C1382    C      0.826000000000     0.622800000000     0.801200000000     0          
H1383    H      0.820900000000     0.616100000000     0.779500000000     0          
O1384    O      0.714300000000     0.624420000000     0.173480000000     0          
C1385    C      0.763460000000     0.613800000000     0.220890000000     0          
H1386    H      0.769800000000     0.615300000000     0.198500000000     0          
C1387    C      0.786940000000     0.608900000000     0.245420000000     0          
H1388    H      0.809300000000     0.606200000000     0.239300000000     0          
C1389    C      0.881200000000     0.583100000000     0.343900000000     0          
O1390    O      0.714300000000     0.124420000000     0.673480000000     0          
C1391    C      0.763460000000     0.113800000000     0.720890000000     0          
H1392    H      0.769800000000     0.115300000000     0.698500000000     0          
C1393    C      0.786940000000     0.108900000000     0.745420000000     0          
H1394    H      0.809300000000     0.106200000000     0.739300000000     0          
C1395    C      0.883310000000     0.106300000000     0.841700000000     0          
C1396    C      0.891600000000     0.117100000000     0.809300000000     0          
C1397    C      0.924000000000     0.127200000000     0.801200000000     0          
H1398    H      0.929100000000     0.133900000000     0.779500000000     0          
O1399    O      0.214300000000     0.624420000000     0.673480000000     0          
C1400    C      0.263460000000     0.613800000000     0.720890000000     0          
H1401    H      0.269800000000     0.615300000000     0.698500000000     0          
C1402    C      0.286940000000     0.608900000000     0.745420000000     0          
H1403    H      0.309300000000     0.606200000000     0.739300000000     0          
C1404    C      0.381200000000     0.583100000000     0.843900000000     0          
O1405    O      0.214300000000     0.124420000000     0.173480000000     0          
C1406    C      0.263460000000     0.113800000000     0.220890000000     0          
H1407    H      0.269800000000     0.115300000000     0.198500000000     0          
C1408    C      0.286940000000     0.108900000000     0.245420000000     0          
H1409    H      0.309300000000     0.106200000000     0.239300000000     0          
C1410    C      0.381200000000     0.083100000000     0.343900000000     0          
O1411    O      0.214300000000     0.625580000000     0.576520000000     0          
C1412    C      0.263460000000     0.636200000000     0.529110000000     0          
H1413    H      0.269800000000     0.634700000000     0.551500000000     0          
C1414    C      0.286940000000     0.641100000000     0.504580000000     0          
H1415    H      0.309300000000     0.643800000000     0.510700000000     0          
C1416    C      0.383310000000     0.643700000000     0.408300000000     0          
C1417    C      0.391600000000     0.632900000000     0.440700000000     0          
C1418    C      0.424000000000     0.622800000000     0.448800000000     0          
H1419    H      0.429100000000     0.616100000000     0.470500000000     0          
O1420    O      0.214300000000     0.125580000000     0.076520000000     0          
C1421    C      0.263460000000     0.136200000000     0.029110000000     0          
H1422    H      0.269800000000     0.134700000000     0.051500000000     0          
C1423    C      0.286940000000     0.141100000000     0.004580000000     0          
H1424    H      0.309300000000     0.143800000000     0.010700000000     0          
C1425    C      0.383310000000     0.143700000000     0.908300000000     0          
C1426    C      0.391600000000     0.132900000000     0.940700000000     0          
C1427    C      0.424000000000     0.122800000000     0.948800000000     0          
H1428    H      0.429100000000     0.116100000000     0.970500000000     0          
O1429    O      0.714300000000     0.625580000000     0.076520000000     0          
C1430    C      0.763460000000     0.636200000000     0.029110000000     0          
H1431    H      0.769800000000     0.634700000000     0.051500000000     0          
C1432    C      0.786940000000     0.641100000000     0.004580000000     0          
H1433    H      0.809300000000     0.643800000000     0.010700000000     0          
C1434    C      0.881200000000     0.666900000000     0.906100000000     0          
O1435    O      0.714300000000     0.125580000000     0.576520000000     0          
C1436    C      0.763460000000     0.136200000000     0.529110000000     0          
H1437    H      0.769800000000     0.134700000000     0.551500000000     0          
C1438    C      0.786940000000     0.141100000000     0.504580000000     0          
H1439    H      0.809300000000     0.143800000000     0.510700000000     0          
C1440    C      0.881200000000     0.166900000000     0.406100000000     0          
Zr1441   Zr     0.625000000000     0.625000000000     0.186960000000     0          
Zr1442   Zr     0.125000000000     0.625000000000     0.686960000000     0          
Zr1443   Zr     0.125000000000     0.125000000000     0.186960000000     0          
Zr1444   Zr     0.625000000000     0.125000000000     0.563040000000     0          
Zr1445   Zr     0.625000000000     0.625000000000     0.063040000000     0          
Zr1446   Zr     0.125000000000     0.125000000000     0.063040000000     0          
Zr1447   Zr     0.186960000000     0.625000000000     0.625000000000     0          
Zr1448   Zr     0.186960000000     0.125000000000     0.125000000000     0          
Zr1449   Zr     0.686960000000     0.125000000000     0.625000000000     0          
Zr1450   Zr     0.563040000000     0.625000000000     0.125000000000     0          
Zr1451   Zr     0.063040000000     0.125000000000     0.125000000000     0          
Zr1452   Zr     0.063040000000     0.625000000000     0.625000000000     0          
Zr1453   Zr     0.625000000000     0.186960000000     0.625000000000     0          
Zr1454   Zr     0.625000000000     0.686960000000     0.125000000000     0          
Zr1455   Zr     0.125000000000     0.186960000000     0.125000000000     0          
Zr1456   Zr     0.125000000000     0.563040000000     0.625000000000     0          
Zr1457   Zr     0.125000000000     0.063040000000     0.125000000000     0          
Zr1458   Zr     0.375000000000     0.875000000000     0.313040000000     0          
Zr1459   Zr     0.375000000000     0.375000000000     0.813040000000     0          
Zr1460   Zr     0.875000000000     0.875000000000     0.936960000000     0          
Zr1461   Zr     0.375000000000     0.375000000000     0.936960000000     0          
Zr1462   Zr     0.875000000000     0.375000000000     0.436960000000     0          
Zr1463   Zr     0.375000000000     0.436960000000     0.875000000000     0          
Zr1464   Zr     0.375000000000     0.936960000000     0.375000000000     0          
Zr1465   Zr     0.875000000000     0.936960000000     0.875000000000     0          
Zr1466   Zr     0.375000000000     0.813040000000     0.375000000000     0          
Zr1467   Zr     0.875000000000     0.313040000000     0.375000000000     0          
Zr1468   Zr     0.875000000000     0.813040000000     0.875000000000     0          
Zr1469   Zr     0.936960000000     0.875000000000     0.875000000000     0          
Zr1470   Zr     0.936960000000     0.375000000000     0.375000000000     0          
Zr1471   Zr     0.436960000000     0.875000000000     0.375000000000     0          
Zr1472   Zr     0.313040000000     0.375000000000     0.875000000000     0          
Zr1473   Zr     0.813040000000     0.375000000000     0.375000000000     0          
Zr1474   Zr     0.813040000000     0.875000000000     0.875000000000     0          
Zr1475   Zr     0.875000000000     0.375000000000     0.313040000000     0          
Zr1476   Zr     0.875000000000     0.875000000000     0.813040000000     0          
Zr1477   Zr     0.375000000000     0.875000000000     0.436960000000     0          
Zr1478   Zr     0.313040000000     0.875000000000     0.375000000000     0          
Zr1479   Zr     0.436960000000     0.375000000000     0.875000000000     0          
Zr1480   Zr     0.375000000000     0.313040000000     0.875000000000     0          
Zr1481   Zr     0.875000000000     0.436960000000     0.375000000000     0          
Zr1482   Zr     0.625000000000     0.125000000000     0.686960000000     0          
Zr1483   Zr     0.125000000000     0.625000000000     0.563040000000     0          
Zr1484   Zr     0.625000000000     0.563040000000     0.125000000000     0          
Zr1485   Zr     0.625000000000     0.063040000000     0.625000000000     0          
Zr1486   Zr     0.125000000000     0.686960000000     0.625000000000     0          
Zr1487   Zr     0.563040000000     0.125000000000     0.625000000000     0          
Zr1488   Zr     0.686960000000     0.625000000000     0.125000000000     0          
O1489    O      0.592900000000     0.592900000000     0.157100000000     0          
O1490    O      0.157100000000     0.657100000000     0.657100000000     0          
O1491    O      0.157100000000     0.157100000000     0.157100000000     0          
O1492    O      0.657100000000     0.092900000000     0.592900000000     0          
O1493    O      0.092900000000     0.157100000000     0.092900000000     0          
O1494    O      0.157100000000     0.592900000000     0.592900000000     0          
O1495    O      0.657100000000     0.157100000000     0.657100000000     0          
O1496    O      0.592900000000     0.657100000000     0.092900000000     0          
O1497    O      0.092900000000     0.092900000000     0.157100000000     0          
O1498    O      0.592900000000     0.157100000000     0.592900000000     0          
O1499    O      0.657100000000     0.657100000000     0.157100000000     0          
O1500    O      0.092900000000     0.592900000000     0.657100000000     0          
O1501    O      0.157100000000     0.092900000000     0.092900000000     0          
O1502    O      0.342900000000     0.842900000000     0.342900000000     0          
O1503    O      0.407100000000     0.407100000000     0.842900000000     0          
O1504    O      0.842900000000     0.907100000000     0.907100000000     0          
O1505    O      0.907100000000     0.342900000000     0.407100000000     0          
O1506    O      0.342900000000     0.407100000000     0.907100000000     0          
O1507    O      0.907100000000     0.907100000000     0.842900000000     0          
O1508    O      0.407100000000     0.842900000000     0.407100000000     0          
O1509    O      0.842900000000     0.342900000000     0.342900000000     0          
O1510    O      0.842900000000     0.842900000000     0.842900000000     0          
O1511    O      0.907100000000     0.842900000000     0.907100000000     0          
O1512    O      0.407100000000     0.907100000000     0.342900000000     0          
O1513    O      0.342900000000     0.342900000000     0.842900000000     0          
O1514    O      0.842900000000     0.407100000000     0.407100000000     0          
O1515    O      0.342900000000     0.907100000000     0.407100000000     0          
O1516    O      0.407100000000     0.342900000000     0.907100000000     0          
O1517    O      0.907100000000     0.407100000000     0.342900000000     0          
O1518    O      0.092900000000     0.657100000000     0.592900000000     0          
O1519    O      0.657100000000     0.592900000000     0.092900000000     0          
O1520    O      0.592900000000     0.092900000000     0.657100000000     0          
O1521    O      0.595970000000     0.654030000000     0.154030000000     0          
O1522    O      0.095970000000     0.654030000000     0.654030000000     0          
O1523    O      0.154030000000     0.595970000000     0.654030000000     0          
O1524    O      0.154030000000     0.095970000000     0.154030000000     0          
O1525    O      0.654030000000     0.154030000000     0.595970000000     0          
O1526    O      0.654030000000     0.654030000000     0.095970000000     0          
O1527    O      0.095970000000     0.095970000000     0.095970000000     0          
O1528    O      0.095970000000     0.595970000000     0.595970000000     0          
O1529    O      0.595970000000     0.095970000000     0.595970000000     0          
O1530    O      0.595970000000     0.595970000000     0.095970000000     0          
O1531    O      0.654030000000     0.095970000000     0.654030000000     0          
O1532    O      0.154030000000     0.154030000000     0.095970000000     0          
O1533    O      0.404030000000     0.845970000000     0.345970000000     0          
O1534    O      0.904030000000     0.845970000000     0.845970000000     0          
O1535    O      0.345970000000     0.404030000000     0.845970000000     0          
O1536    O      0.345970000000     0.904030000000     0.345970000000     0          
O1537    O      0.904030000000     0.904030000000     0.904030000000     0          
O1538    O      0.904030000000     0.404030000000     0.404030000000     0          
O1539    O      0.404030000000     0.904030000000     0.404030000000     0          
O1540    O      0.404030000000     0.404030000000     0.904030000000     0          
O1541    O      0.845970000000     0.345970000000     0.404030000000     0          
O1542    O      0.845970000000     0.845970000000     0.904030000000     0          
O1543    O      0.845970000000     0.904030000000     0.845970000000     0          
O1544    O      0.404030000000     0.345970000000     0.845970000000     0          
O1545    O      0.904030000000     0.345970000000     0.345970000000     0          
O1546    O      0.845970000000     0.404030000000     0.345970000000     0          
O1547    O      0.345970000000     0.845970000000     0.404030000000     0          
O1548    O      0.345970000000     0.345970000000     0.904030000000     0          
O1549    O      0.595970000000     0.154030000000     0.654030000000     0          
O1550    O      0.095970000000     0.154030000000     0.154030000000     0          
O1551    O      0.654030000000     0.595970000000     0.154030000000     0          
O1552    O      0.154030000000     0.654030000000     0.595970000000     0          
C1553    C      0.546180000000     0.628130000000     0.203820000000     0          
C1554    C      0.520010000000     0.633370000000     0.229990000000     0          
C1555    C      0.471400000000     0.642300000000     0.278600000000     0          
C1556    C      0.446300000000     0.648700000000     0.303700000000     0          
C1557    C      0.425340000000     0.653600000000     0.324660000000     0          
C1558    C      0.399570000000     0.654400000000     0.350430000000     0          
C1559    C      0.046180000000     0.628130000000     0.703820000000     0          
C1560    C      0.020010000000     0.633370000000     0.729990000000     0          
C1561    C      0.971400000000     0.642300000000     0.778600000000     0          
C1562    C      0.946300000000     0.648700000000     0.803700000000     0          
C1563    C      0.925340000000     0.653600000000     0.824660000000     0          
C1564    C      0.899570000000     0.654400000000     0.850430000000     0          
C1565    C      0.046180000000     0.128130000000     0.203820000000     0          
C1566    C      0.020010000000     0.133370000000     0.229990000000     0          
C1567    C      0.971400000000     0.142300000000     0.278600000000     0          
C1568    C      0.946300000000     0.148700000000     0.303700000000     0          
C1569    C      0.925340000000     0.153600000000     0.324660000000     0          
C1570    C      0.899570000000     0.154400000000     0.350430000000     0          
C1571    C      0.203820000000     0.621870000000     0.703820000000     0          
C1572    C      0.229990000000     0.616630000000     0.729990000000     0          
C1573    C      0.278600000000     0.607700000000     0.778600000000     0          
C1574    C      0.303700000000     0.601300000000     0.803700000000     0          
C1575    C      0.324660000000     0.596400000000     0.824660000000     0          
C1576    C      0.350430000000     0.595600000000     0.850430000000     0          
C1577    C      0.203820000000     0.121870000000     0.203820000000     0          
C1578    C      0.229990000000     0.116630000000     0.229990000000     0          
C1579    C      0.278600000000     0.107700000000     0.278600000000     0          
C1580    C      0.303700000000     0.101300000000     0.303700000000     0          
C1581    C      0.324660000000     0.096400000000     0.324660000000     0          
C1582    C      0.350430000000     0.095600000000     0.350430000000     0          
C1583    C      0.703820000000     0.121870000000     0.703820000000     0          
C1584    C      0.729990000000     0.116630000000     0.729990000000     0          
C1585    C      0.778600000000     0.107700000000     0.778600000000     0          
C1586    C      0.803700000000     0.101300000000     0.803700000000     0          
C1587    C      0.824660000000     0.096400000000     0.824660000000     0          
C1588    C      0.850430000000     0.095600000000     0.850430000000     0          
C1589    C      0.703820000000     0.128130000000     0.546180000000     0          
C1590    C      0.729990000000     0.133370000000     0.520010000000     0          
C1591    C      0.778600000000     0.142300000000     0.471400000000     0          
C1592    C      0.803700000000     0.148700000000     0.446300000000     0          
C1593    C      0.824660000000     0.153600000000     0.425340000000     0          
C1594    C      0.850430000000     0.154400000000     0.399570000000     0          
C1595    C      0.703820000000     0.628130000000     0.046180000000     0          
C1596    C      0.729990000000     0.633370000000     0.020010000000     0          
C1597    C      0.778600000000     0.642300000000     0.971400000000     0          
C1598    C      0.803700000000     0.648700000000     0.946300000000     0          
C1599    C      0.824660000000     0.653600000000     0.925340000000     0          
C1600    C      0.850430000000     0.654400000000     0.899570000000     0          
C1601    C      0.203820000000     0.128130000000     0.046180000000     0          
C1602    C      0.229990000000     0.133370000000     0.020010000000     0          
C1603    C      0.278600000000     0.142300000000     0.971400000000     0          
C1604    C      0.303700000000     0.148700000000     0.946300000000     0          
C1605    C      0.324660000000     0.153600000000     0.925340000000     0          
C1606    C      0.350430000000     0.154400000000     0.899570000000     0          
C1607    C      0.046180000000     0.121870000000     0.046180000000     0          
C1608    C      0.020010000000     0.116630000000     0.020010000000     0          
C1609    C      0.971400000000     0.107700000000     0.971400000000     0          
C1610    C      0.946300000000     0.101300000000     0.946300000000     0          
C1611    C      0.925340000000     0.096400000000     0.925340000000     0          
C1612    C      0.899570000000     0.095600000000     0.899570000000     0          
C1613    C      0.046180000000     0.621870000000     0.546180000000     0          
C1614    C      0.020010000000     0.616630000000     0.520010000000     0          
C1615    C      0.971400000000     0.607700000000     0.471400000000     0          
C1616    C      0.946300000000     0.601300000000     0.446300000000     0          
C1617    C      0.925340000000     0.596400000000     0.425340000000     0          
C1618    C      0.899570000000     0.595600000000     0.399570000000     0          
C1619    C      0.546180000000     0.121870000000     0.546180000000     0          
C1620    C      0.520010000000     0.116630000000     0.520010000000     0          
C1621    C      0.471400000000     0.107700000000     0.471400000000     0          
C1622    C      0.446300000000     0.101300000000     0.446300000000     0          
C1623    C      0.425340000000     0.096400000000     0.425340000000     0          
C1624    C      0.399570000000     0.095600000000     0.399570000000     0          
C1625    C      0.546180000000     0.621870000000     0.046180000000     0          
C1626    C      0.520010000000     0.616630000000     0.020010000000     0          
C1627    C      0.471400000000     0.607700000000     0.971400000000     0          
C1628    C      0.446300000000     0.601300000000     0.946300000000     0          
C1629    C      0.425340000000     0.596400000000     0.925340000000     0          
C1630    C      0.399570000000     0.595600000000     0.899570000000     0          
C1631    C      0.203820000000     0.546180000000     0.628130000000     0          
C1632    C      0.229990000000     0.520010000000     0.633370000000     0          
C1633    C      0.278600000000     0.471400000000     0.642300000000     0          
C1634    C      0.303700000000     0.446300000000     0.648700000000     0          
C1635    C      0.324660000000     0.425340000000     0.653600000000     0          
C1636    C      0.350430000000     0.399570000000     0.654400000000     0          
C1637    C      0.203820000000     0.046180000000     0.128130000000     0          
C1638    C      0.229990000000     0.020010000000     0.133370000000     0          
C1639    C      0.278600000000     0.971400000000     0.142300000000     0          
C1640    C      0.303700000000     0.946300000000     0.148700000000     0          
C1641    C      0.324660000000     0.925340000000     0.153600000000     0          
C1642    C      0.350430000000     0.899570000000     0.154400000000     0          
C1643    C      0.703820000000     0.203820000000     0.621870000000     0          
C1644    C      0.729990000000     0.229990000000     0.616630000000     0          
C1645    C      0.778600000000     0.278600000000     0.607700000000     0          
C1646    C      0.803700000000     0.303700000000     0.601300000000     0          
C1647    C      0.824660000000     0.324660000000     0.596400000000     0          
C1648    C      0.850430000000     0.350430000000     0.595600000000     0          
C1649    C      0.703820000000     0.703820000000     0.121870000000     0          
C1650    C      0.729990000000     0.729990000000     0.116630000000     0          
C1651    C      0.778600000000     0.778600000000     0.107700000000     0          
C1652    C      0.803700000000     0.803700000000     0.101300000000     0          
C1653    C      0.824660000000     0.824660000000     0.096400000000     0          
C1654    C      0.850430000000     0.850430000000     0.095600000000     0          
C1655    C      0.546180000000     0.703820000000     0.128130000000     0          
C1656    C      0.520010000000     0.729990000000     0.133370000000     0          
C1657    C      0.471400000000     0.778600000000     0.142300000000     0          
C1658    C      0.446300000000     0.803700000000     0.148700000000     0          
C1659    C      0.425340000000     0.824660000000     0.153600000000     0          
C1660    C      0.399570000000     0.850430000000     0.154400000000     0          
C1661    C      0.046180000000     0.703820000000     0.628130000000     0          
C1662    C      0.020010000000     0.729990000000     0.633370000000     0          
C1663    C      0.971400000000     0.778600000000     0.642300000000     0          
C1664    C      0.946300000000     0.803700000000     0.648700000000     0          
C1665    C      0.925340000000     0.824660000000     0.653600000000     0          
C1666    C      0.899570000000     0.850430000000     0.654400000000     0          
C1667    C      0.046180000000     0.203820000000     0.128130000000     0          
C1668    C      0.020010000000     0.229990000000     0.133370000000     0          
C1669    C      0.971400000000     0.278600000000     0.142300000000     0          
C1670    C      0.946300000000     0.303700000000     0.148700000000     0          
C1671    C      0.925340000000     0.324660000000     0.153600000000     0          
C1672    C      0.899570000000     0.350430000000     0.154400000000     0          
C1673    C      0.046180000000     0.046180000000     0.121870000000     0          
C1674    C      0.020010000000     0.020010000000     0.116630000000     0          
C1675    C      0.971400000000     0.971400000000     0.107700000000     0          
C1676    C      0.946300000000     0.946300000000     0.101300000000     0          
C1677    C      0.925340000000     0.925340000000     0.096400000000     0          
C1678    C      0.899570000000     0.899570000000     0.095600000000     0          
C1679    C      0.046180000000     0.546180000000     0.621870000000     0          
C1680    C      0.020010000000     0.520010000000     0.616630000000     0          
C1681    C      0.971400000000     0.471400000000     0.607700000000     0          
C1682    C      0.946300000000     0.446300000000     0.601300000000     0          
C1683    C      0.925340000000     0.425340000000     0.596400000000     0          
C1684    C      0.899570000000     0.399570000000     0.595600000000     0          
C1685    C      0.546180000000     0.046180000000     0.621870000000     0          
C1686    C      0.520010000000     0.020010000000     0.616630000000     0          
C1687    C      0.471400000000     0.971400000000     0.607700000000     0          
C1688    C      0.446300000000     0.946300000000     0.601300000000     0          
C1689    C      0.425340000000     0.925340000000     0.596400000000     0          
C1690    C      0.399570000000     0.899570000000     0.595600000000     0          
C1691    C      0.546180000000     0.546180000000     0.121870000000     0          
C1692    C      0.520010000000     0.520010000000     0.116630000000     0          
C1693    C      0.471400000000     0.471400000000     0.107700000000     0          
C1694    C      0.446300000000     0.446300000000     0.101300000000     0          
C1695    C      0.425340000000     0.425340000000     0.096400000000     0          
C1696    C      0.399570000000     0.399570000000     0.095600000000     0          
C1697    C      0.628130000000     0.203820000000     0.546180000000     0          
C1698    C      0.633370000000     0.229990000000     0.520010000000     0          
C1699    C      0.642300000000     0.278600000000     0.471400000000     0          
C1700    C      0.648700000000     0.303700000000     0.446300000000     0          
C1701    C      0.653600000000     0.324660000000     0.425340000000     0          
C1702    C      0.654400000000     0.350430000000     0.399570000000     0          
C1703    C      0.628130000000     0.703820000000     0.046180000000     0          
C1704    C      0.633370000000     0.729990000000     0.020010000000     0          
C1705    C      0.642300000000     0.778600000000     0.971400000000     0          
C1706    C      0.648700000000     0.803700000000     0.946300000000     0          
C1707    C      0.653600000000     0.824660000000     0.925340000000     0          
C1708    C      0.654400000000     0.850430000000     0.899570000000     0          
C1709    C      0.128130000000     0.203820000000     0.046180000000     0          
C1710    C      0.133370000000     0.229990000000     0.020010000000     0          
C1711    C      0.142300000000     0.278600000000     0.971400000000     0          
C1712    C      0.148700000000     0.303700000000     0.946300000000     0          
C1713    C      0.153600000000     0.324660000000     0.925340000000     0          
C1714    C      0.154400000000     0.350430000000     0.899570000000     0          
C1715    C      0.621870000000     0.703820000000     0.203820000000     0          
C1716    C      0.616630000000     0.729990000000     0.229990000000     0          
C1717    C      0.607700000000     0.778600000000     0.278600000000     0          
C1718    C      0.601300000000     0.803700000000     0.303700000000     0          
C1719    C      0.596400000000     0.824660000000     0.324660000000     0          
C1720    C      0.595600000000     0.850430000000     0.350430000000     0          
C1721    C      0.121870000000     0.703820000000     0.703820000000     0          
C1722    C      0.116630000000     0.729990000000     0.729990000000     0          
C1723    C      0.107700000000     0.778600000000     0.778600000000     0          
C1724    C      0.101300000000     0.803700000000     0.803700000000     0          
C1725    C      0.096400000000     0.824660000000     0.824660000000     0          
C1726    C      0.095600000000     0.850430000000     0.850430000000     0          
C1727    C      0.128130000000     0.546180000000     0.703820000000     0          
C1728    C      0.133370000000     0.520010000000     0.729990000000     0          
C1729    C      0.142300000000     0.471400000000     0.778600000000     0          
C1730    C      0.148700000000     0.446300000000     0.803700000000     0          
C1731    C      0.153600000000     0.425340000000     0.824660000000     0          
C1732    C      0.154400000000     0.399570000000     0.850430000000     0          
C1733    C      0.128130000000     0.046180000000     0.203820000000     0          
C1734    C      0.133370000000     0.020010000000     0.229990000000     0          
C1735    C      0.142300000000     0.971400000000     0.278600000000     0          
C1736    C      0.148700000000     0.946300000000     0.303700000000     0          
C1737    C      0.153600000000     0.925340000000     0.324660000000     0          
C1738    C      0.154400000000     0.899570000000     0.350430000000     0          
C1739    C      0.121870000000     0.046180000000     0.046180000000     0          
C1740    C      0.116630000000     0.020010000000     0.020010000000     0          
C1741    C      0.107700000000     0.971400000000     0.971400000000     0          
C1742    C      0.101300000000     0.946300000000     0.946300000000     0          
C1743    C      0.096400000000     0.925340000000     0.925340000000     0          
C1744    C      0.095600000000     0.899570000000     0.899570000000     0          
C1745    C      0.121870000000     0.546180000000     0.546180000000     0          
C1746    C      0.116630000000     0.520010000000     0.520010000000     0          
C1747    C      0.107700000000     0.471400000000     0.471400000000     0          
C1748    C      0.101300000000     0.446300000000     0.446300000000     0          
C1749    C      0.096400000000     0.425340000000     0.425340000000     0          
C1750    C      0.095600000000     0.399570000000     0.399570000000     0          
C1751    C      0.621870000000     0.046180000000     0.546180000000     0          
C1752    C      0.616630000000     0.020010000000     0.520010000000     0          
C1753    C      0.607700000000     0.971400000000     0.471400000000     0          
C1754    C      0.601300000000     0.946300000000     0.446300000000     0          
C1755    C      0.596400000000     0.925340000000     0.425340000000     0          
C1756    C      0.595600000000     0.899570000000     0.399570000000     0          
C1757    C      0.621870000000     0.546180000000     0.046180000000     0          
C1758    C      0.616630000000     0.520010000000     0.020010000000     0          
C1759    C      0.607700000000     0.471400000000     0.971400000000     0          
C1760    C      0.601300000000     0.446300000000     0.946300000000     0          
C1761    C      0.596400000000     0.425340000000     0.925340000000     0          
C1762    C      0.595600000000     0.399570000000     0.899570000000     0          
C1763    C      0.378130000000     0.796180000000     0.296180000000     0          
C1764    C      0.383370000000     0.770010000000     0.270010000000     0          
C1765    C      0.392300000000     0.721400000000     0.221400000000     0          
C1766    C      0.398700000000     0.696300000000     0.196300000000     0          
C1767    C      0.403600000000     0.675340000000     0.175340000000     0          
C1768    C      0.404400000000     0.649570000000     0.149570000000     0          
C1769    C      0.878130000000     0.796180000000     0.796180000000     0          
C1770    C      0.883370000000     0.770010000000     0.770010000000     0          
C1771    C      0.892300000000     0.721400000000     0.721400000000     0          
C1772    C      0.898700000000     0.696300000000     0.696300000000     0          
C1773    C      0.903600000000     0.675340000000     0.675340000000     0          
C1774    C      0.904400000000     0.649570000000     0.649570000000     0          
C1775    C      0.371870000000     0.453820000000     0.796180000000     0          
C1776    C      0.366630000000     0.479990000000     0.770010000000     0          
C1777    C      0.357700000000     0.528600000000     0.721400000000     0          
C1778    C      0.351300000000     0.553700000000     0.696300000000     0          
C1779    C      0.346400000000     0.574660000000     0.675340000000     0          
C1780    C      0.345600000000     0.600430000000     0.649570000000     0          
C1781    C      0.371870000000     0.953820000000     0.296180000000     0          
C1782    C      0.366630000000     0.979990000000     0.270010000000     0          
C1783    C      0.357700000000     0.028600000000     0.221400000000     0          
C1784    C      0.351300000000     0.053700000000     0.196300000000     0          
C1785    C      0.346400000000     0.074660000000     0.175340000000     0          
C1786    C      0.345600000000     0.100430000000     0.149570000000     0          
C1787    C      0.878130000000     0.953820000000     0.953820000000     0          
C1788    C      0.883370000000     0.979990000000     0.979990000000     0          
C1789    C      0.892300000000     0.028600000000     0.028600000000     0          
C1790    C      0.898700000000     0.053700000000     0.053700000000     0          
C1791    C      0.903600000000     0.074660000000     0.074660000000     0          
C1792    C      0.904400000000     0.100430000000     0.100430000000     0          
C1793    C      0.878130000000     0.453820000000     0.453820000000     0          
C1794    C      0.883370000000     0.479990000000     0.479990000000     0          
C1795    C      0.892300000000     0.528600000000     0.528600000000     0          
C1796    C      0.898700000000     0.553700000000     0.553700000000     0          
C1797    C      0.903600000000     0.574660000000     0.574660000000     0          
C1798    C      0.904400000000     0.600430000000     0.600430000000     0          
C1799    C      0.378130000000     0.953820000000     0.453820000000     0          
C1800    C      0.383370000000     0.979990000000     0.479990000000     0          
C1801    C      0.392300000000     0.028600000000     0.528600000000     0          
C1802    C      0.398700000000     0.053700000000     0.553700000000     0          
C1803    C      0.403600000000     0.074660000000     0.574660000000     0          
C1804    C      0.404400000000     0.100430000000     0.600430000000     0          
C1805    C      0.378130000000     0.453820000000     0.953820000000     0          
C1806    C      0.383370000000     0.479990000000     0.979990000000     0          
C1807    C      0.392300000000     0.528600000000     0.028600000000     0          
C1808    C      0.398700000000     0.553700000000     0.053700000000     0          
C1809    C      0.403600000000     0.574660000000     0.074660000000     0          
C1810    C      0.404400000000     0.600430000000     0.100430000000     0          
C1811    C      0.871870000000     0.296180000000     0.453820000000     0          
C1812    C      0.866630000000     0.270010000000     0.479990000000     0          
C1813    C      0.857700000000     0.221400000000     0.528600000000     0          
C1814    C      0.851300000000     0.196300000000     0.553700000000     0          
C1815    C      0.846400000000     0.175340000000     0.574660000000     0          
C1816    C      0.845600000000     0.149570000000     0.600430000000     0          
C1817    C      0.871870000000     0.796180000000     0.953820000000     0          
C1818    C      0.866630000000     0.770010000000     0.979990000000     0          
C1819    C      0.857700000000     0.721400000000     0.028600000000     0          
C1820    C      0.851300000000     0.696300000000     0.053700000000     0          
C1821    C      0.846400000000     0.675340000000     0.074660000000     0          
C1822    C      0.845600000000     0.649570000000     0.100430000000     0          
C1823    C      0.296180000000     0.453820000000     0.871870000000     0          
C1824    C      0.270010000000     0.479990000000     0.866630000000     0          
C1825    C      0.221400000000     0.528600000000     0.857700000000     0          
C1826    C      0.196300000000     0.553700000000     0.851300000000     0          
C1827    C      0.175340000000     0.574660000000     0.846400000000     0          
C1828    C      0.149570000000     0.600430000000     0.845600000000     0          
C1829    C      0.296180000000     0.953820000000     0.371870000000     0          
C1830    C      0.270010000000     0.979990000000     0.366630000000     0          
C1831    C      0.221400000000     0.028600000000     0.357700000000     0          
C1832    C      0.196300000000     0.053700000000     0.351300000000     0          
C1833    C      0.175340000000     0.074660000000     0.346400000000     0          
C1834    C      0.149570000000     0.100430000000     0.345600000000     0          
C1835    C      0.953820000000     0.953820000000     0.878130000000     0          
C1836    C      0.979990000000     0.979990000000     0.883370000000     0          
C1837    C      0.028600000000     0.028600000000     0.892300000000     0          
C1838    C      0.053700000000     0.053700000000     0.898700000000     0          
C1839    C      0.074660000000     0.074660000000     0.903600000000     0          
C1840    C      0.100430000000     0.100430000000     0.904400000000     0          
C1841    C      0.953820000000     0.453820000000     0.378130000000     0          
C1842    C      0.979990000000     0.479990000000     0.383370000000     0          
C1843    C      0.028600000000     0.528600000000     0.392300000000     0          
C1844    C      0.053700000000     0.553700000000     0.398700000000     0          
C1845    C      0.074660000000     0.574660000000     0.403600000000     0          
C1846    C      0.100430000000     0.600430000000     0.404400000000     0          
C1847    C      0.453820000000     0.953820000000     0.378130000000     0          
C1848    C      0.479990000000     0.979990000000     0.383370000000     0          
C1849    C      0.528600000000     0.028600000000     0.392300000000     0          
C1850    C      0.553700000000     0.053700000000     0.398700000000     0          
C1851    C      0.574660000000     0.074660000000     0.403600000000     0          
C1852    C      0.600430000000     0.100430000000     0.404400000000     0          
C1853    C      0.453820000000     0.453820000000     0.878130000000     0          
C1854    C      0.479990000000     0.479990000000     0.883370000000     0          
C1855    C      0.528600000000     0.528600000000     0.892300000000     0          
C1856    C      0.553700000000     0.553700000000     0.898700000000     0          
C1857    C      0.574660000000     0.574660000000     0.903600000000     0          
C1858    C      0.600430000000     0.600430000000     0.904400000000     0          
C1859    C      0.453820000000     0.796180000000     0.371870000000     0          
C1860    C      0.479990000000     0.770010000000     0.366630000000     0          
C1861    C      0.528600000000     0.721400000000     0.357700000000     0          
C1862    C      0.553700000000     0.696300000000     0.351300000000     0          
C1863    C      0.574660000000     0.675340000000     0.346400000000     0          
C1864    C      0.600430000000     0.649570000000     0.345600000000     0          
C1865    C      0.953820000000     0.796180000000     0.871870000000     0          
C1866    C      0.979990000000     0.770010000000     0.866630000000     0          
C1867    C      0.028600000000     0.721400000000     0.857700000000     0          
C1868    C      0.053700000000     0.696300000000     0.851300000000     0          
C1869    C      0.074660000000     0.675340000000     0.846400000000     0          
C1870    C      0.100430000000     0.649570000000     0.845600000000     0          
C1871    C      0.796180000000     0.296180000000     0.378130000000     0          
C1872    C      0.770010000000     0.270010000000     0.383370000000     0          
C1873    C      0.721400000000     0.221400000000     0.392300000000     0          
C1874    C      0.696300000000     0.196300000000     0.398700000000     0          
C1875    C      0.675340000000     0.175340000000     0.403600000000     0          
C1876    C      0.649570000000     0.149570000000     0.404400000000     0          
C1877    C      0.796180000000     0.796180000000     0.878130000000     0          
C1878    C      0.770010000000     0.770010000000     0.883370000000     0          
C1879    C      0.721400000000     0.721400000000     0.892300000000     0          
C1880    C      0.696300000000     0.696300000000     0.898700000000     0          
C1881    C      0.675340000000     0.675340000000     0.903600000000     0          
C1882    C      0.649570000000     0.649570000000     0.904400000000     0          
C1883    C      0.953820000000     0.878130000000     0.953820000000     0          
C1884    C      0.979990000000     0.883370000000     0.979990000000     0          
C1885    C      0.028600000000     0.892300000000     0.028600000000     0          
C1886    C      0.053700000000     0.898700000000     0.053700000000     0          
C1887    C      0.074660000000     0.903600000000     0.074660000000     0          
C1888    C      0.100430000000     0.904400000000     0.100430000000     0          
C1889    C      0.953820000000     0.378130000000     0.453820000000     0          
C1890    C      0.979990000000     0.383370000000     0.479990000000     0          
C1891    C      0.028600000000     0.392300000000     0.528600000000     0          
C1892    C      0.053700000000     0.398700000000     0.553700000000     0          
C1893    C      0.074660000000     0.403600000000     0.574660000000     0          
C1894    C      0.100430000000     0.404400000000     0.600430000000     0          
C1895    C      0.453820000000     0.878130000000     0.453820000000     0          
C1896    C      0.479990000000     0.883370000000     0.479990000000     0          
C1897    C      0.528600000000     0.892300000000     0.528600000000     0          
C1898    C      0.553700000000     0.898700000000     0.553700000000     0          
C1899    C      0.574660000000     0.903600000000     0.574660000000     0          
C1900    C      0.600430000000     0.904400000000     0.600430000000     0          
C1901    C      0.453820000000     0.378130000000     0.953820000000     0          
C1902    C      0.479990000000     0.383370000000     0.979990000000     0          
C1903    C      0.528600000000     0.392300000000     0.028600000000     0          
C1904    C      0.553700000000     0.398700000000     0.053700000000     0          
C1905    C      0.574660000000     0.403600000000     0.074660000000     0          
C1906    C      0.600430000000     0.404400000000     0.100430000000     0          
C1907    C      0.453820000000     0.871870000000     0.296180000000     0          
C1908    C      0.479990000000     0.866630000000     0.270010000000     0          
C1909    C      0.528600000000     0.857700000000     0.221400000000     0          
C1910    C      0.553700000000     0.851300000000     0.196300000000     0          
C1911    C      0.574660000000     0.846400000000     0.175340000000     0          
C1912    C      0.600430000000     0.845600000000     0.149570000000     0          
C1913    C      0.953820000000     0.871870000000     0.796180000000     0          
C1914    C      0.979990000000     0.866630000000     0.770010000000     0          
C1915    C      0.028600000000     0.857700000000     0.721400000000     0          
C1916    C      0.053700000000     0.851300000000     0.696300000000     0          
C1917    C      0.074660000000     0.846400000000     0.675340000000     0          
C1918    C      0.100430000000     0.845600000000     0.649570000000     0          
C1919    C      0.296180000000     0.378130000000     0.796180000000     0          
C1920    C      0.270010000000     0.383370000000     0.770010000000     0          
C1921    C      0.221400000000     0.392300000000     0.721400000000     0          
C1922    C      0.196300000000     0.398700000000     0.696300000000     0          
C1923    C      0.175340000000     0.403600000000     0.675340000000     0          
C1924    C      0.149570000000     0.404400000000     0.649570000000     0          
C1925    C      0.296180000000     0.878130000000     0.296180000000     0          
C1926    C      0.270010000000     0.883370000000     0.270010000000     0          
C1927    C      0.221400000000     0.892300000000     0.221400000000     0          
C1928    C      0.196300000000     0.898700000000     0.196300000000     0          
C1929    C      0.175340000000     0.903600000000     0.175340000000     0          
C1930    C      0.149570000000     0.904400000000     0.149570000000     0          
C1931    C      0.796180000000     0.878130000000     0.796180000000     0          
C1932    C      0.770010000000     0.883370000000     0.770010000000     0          
C1933    C      0.721400000000     0.892300000000     0.721400000000     0          
C1934    C      0.696300000000     0.898700000000     0.696300000000     0          
C1935    C      0.675340000000     0.903600000000     0.675340000000     0          
C1936    C      0.649570000000     0.904400000000     0.649570000000     0          
C1937    C      0.796180000000     0.371870000000     0.453820000000     0          
C1938    C      0.770010000000     0.366630000000     0.479990000000     0          
C1939    C      0.721400000000     0.357700000000     0.528600000000     0          
C1940    C      0.696300000000     0.351300000000     0.553700000000     0          
C1941    C      0.675340000000     0.346400000000     0.574660000000     0          
C1942    C      0.649570000000     0.345600000000     0.600430000000     0          
C1943    C      0.796180000000     0.871870000000     0.953820000000     0          
C1944    C      0.770010000000     0.866630000000     0.979990000000     0          
C1945    C      0.721400000000     0.857700000000     0.028600000000     0          
C1946    C      0.696300000000     0.851300000000     0.053700000000     0          
C1947    C      0.675340000000     0.846400000000     0.074660000000     0          
C1948    C      0.649570000000     0.845600000000     0.100430000000     0          
C1949    C      0.453820000000     0.371870000000     0.796180000000     0          
C1950    C      0.479990000000     0.366630000000     0.770010000000     0          
C1951    C      0.528600000000     0.357700000000     0.721400000000     0          
C1952    C      0.553700000000     0.351300000000     0.696300000000     0          
C1953    C      0.574660000000     0.346400000000     0.675340000000     0          
C1954    C      0.600430000000     0.345600000000     0.649570000000     0          
C1955    C      0.953820000000     0.371870000000     0.296180000000     0          
C1956    C      0.979990000000     0.366630000000     0.270010000000     0          
C1957    C      0.028600000000     0.357700000000     0.221400000000     0          
C1958    C      0.053700000000     0.351300000000     0.196300000000     0          
C1959    C      0.074660000000     0.346400000000     0.175340000000     0          
C1960    C      0.100430000000     0.345600000000     0.149570000000     0          
C1961    C      0.796180000000     0.378130000000     0.296180000000     0          
C1962    C      0.770010000000     0.383370000000     0.270010000000     0          
C1963    C      0.721400000000     0.392300000000     0.221400000000     0          
C1964    C      0.696300000000     0.398700000000     0.196300000000     0          
C1965    C      0.675340000000     0.403600000000     0.175340000000     0          
C1966    C      0.649570000000     0.404400000000     0.149570000000     0          
C1967    C      0.296180000000     0.871870000000     0.453820000000     0          
C1968    C      0.270010000000     0.866630000000     0.479990000000     0          
C1969    C      0.221400000000     0.857700000000     0.528600000000     0          
C1970    C      0.196300000000     0.851300000000     0.553700000000     0          
C1971    C      0.175340000000     0.846400000000     0.574660000000     0          
C1972    C      0.149570000000     0.845600000000     0.600430000000     0          
C1973    C      0.296180000000     0.371870000000     0.953820000000     0          
C1974    C      0.270010000000     0.366630000000     0.979990000000     0          
C1975    C      0.221400000000     0.357700000000     0.028600000000     0          
C1976    C      0.196300000000     0.351300000000     0.053700000000     0          
C1977    C      0.175340000000     0.346400000000     0.074660000000     0          
C1978    C      0.149570000000     0.345600000000     0.100430000000     0          
C1979    C      0.796180000000     0.453820000000     0.371870000000     0          
C1980    C      0.770010000000     0.479990000000     0.366630000000     0          
C1981    C      0.721400000000     0.528600000000     0.357700000000     0          
C1982    C      0.696300000000     0.553700000000     0.351300000000     0          
C1983    C      0.675340000000     0.574660000000     0.346400000000     0          
C1984    C      0.649570000000     0.600430000000     0.345600000000     0          
C1985    C      0.796180000000     0.953820000000     0.871870000000     0          
C1986    C      0.770010000000     0.979990000000     0.866630000000     0          
C1987    C      0.721400000000     0.028600000000     0.857700000000     0          
C1988    C      0.696300000000     0.053700000000     0.851300000000     0          
C1989    C      0.675340000000     0.074660000000     0.846400000000     0          
C1990    C      0.649570000000     0.100430000000     0.845600000000     0          
C1991    C      0.296180000000     0.796180000000     0.378130000000     0          
C1992    C      0.270010000000     0.770010000000     0.383370000000     0          
C1993    C      0.221400000000     0.721400000000     0.392300000000     0          
C1994    C      0.196300000000     0.696300000000     0.398700000000     0          
C1995    C      0.175340000000     0.675340000000     0.403600000000     0          
C1996    C      0.149570000000     0.649570000000     0.404400000000     0          
C1997    C      0.296180000000     0.296180000000     0.878130000000     0          
C1998    C      0.270010000000     0.270010000000     0.883370000000     0          
C1999    C      0.221400000000     0.221400000000     0.892300000000     0          
C2000    C      0.196300000000     0.196300000000     0.898700000000     0          
C2001    C      0.175340000000     0.175340000000     0.903600000000     0          
C2002    C      0.149570000000     0.149570000000     0.904400000000     0          
C2003    C      0.453820000000     0.296180000000     0.871870000000     0          
C2004    C      0.479990000000     0.270010000000     0.866630000000     0          
C2005    C      0.528600000000     0.221400000000     0.857700000000     0          
C2006    C      0.553700000000     0.196300000000     0.851300000000     0          
C2007    C      0.574660000000     0.175340000000     0.846400000000     0          
C2008    C      0.600430000000     0.149570000000     0.845600000000     0          
C2009    C      0.953820000000     0.296180000000     0.371870000000     0          
C2010    C      0.979990000000     0.270010000000     0.366630000000     0          
C2011    C      0.028600000000     0.221400000000     0.357700000000     0          
C2012    C      0.053700000000     0.196300000000     0.351300000000     0          
C2013    C      0.074660000000     0.175340000000     0.346400000000     0          
C2014    C      0.100430000000     0.149570000000     0.345600000000     0          
C2015    C      0.371870000000     0.796180000000     0.453820000000     0          
C2016    C      0.366630000000     0.770010000000     0.479990000000     0          
C2017    C      0.357700000000     0.721400000000     0.528600000000     0          
C2018    C      0.351300000000     0.696300000000     0.553700000000     0          
C2019    C      0.346400000000     0.675340000000     0.574660000000     0          
C2020    C      0.345600000000     0.649570000000     0.600430000000     0          
C2021    C      0.371870000000     0.296180000000     0.953820000000     0          
C2022    C      0.366630000000     0.270010000000     0.979990000000     0          
C2023    C      0.357700000000     0.221400000000     0.028600000000     0          
C2024    C      0.351300000000     0.196300000000     0.053700000000     0          
C2025    C      0.346400000000     0.175340000000     0.074660000000     0          
C2026    C      0.345600000000     0.149570000000     0.100430000000     0          
C2027    C      0.378130000000     0.296180000000     0.796180000000     0          
C2028    C      0.383370000000     0.270010000000     0.770010000000     0          
C2029    C      0.392300000000     0.221400000000     0.721400000000     0          
C2030    C      0.398700000000     0.196300000000     0.696300000000     0          
C2031    C      0.403600000000     0.175340000000     0.675340000000     0          
C2032    C      0.404400000000     0.149570000000     0.649570000000     0          
C2033    C      0.878130000000     0.296180000000     0.296180000000     0          
C2034    C      0.883370000000     0.270010000000     0.270010000000     0          
C2035    C      0.892300000000     0.221400000000     0.221400000000     0          
C2036    C      0.898700000000     0.196300000000     0.196300000000     0          
C2037    C      0.903600000000     0.175340000000     0.175340000000     0          
C2038    C      0.904400000000     0.149570000000     0.149570000000     0          
C2039    C      0.871870000000     0.453820000000     0.296180000000     0          
C2040    C      0.866630000000     0.479990000000     0.270010000000     0          
C2041    C      0.857700000000     0.528600000000     0.221400000000     0          
C2042    C      0.851300000000     0.553700000000     0.196300000000     0          
C2043    C      0.846400000000     0.574660000000     0.175340000000     0          
C2044    C      0.845600000000     0.600430000000     0.149570000000     0          
C2045    C      0.871870000000     0.953820000000     0.796180000000     0          
C2046    C      0.866630000000     0.979990000000     0.770010000000     0          
C2047    C      0.857700000000     0.028600000000     0.721400000000     0          
C2048    C      0.851300000000     0.053700000000     0.696300000000     0          
C2049    C      0.846400000000     0.074660000000     0.675340000000     0          
C2050    C      0.845600000000     0.100430000000     0.649570000000     0          
C2051    C      0.621870000000     0.203820000000     0.703820000000     0          
C2052    C      0.616630000000     0.229990000000     0.729990000000     0          
C2053    C      0.607700000000     0.278600000000     0.778600000000     0          
C2054    C      0.601300000000     0.303700000000     0.803700000000     0          
C2055    C      0.596400000000     0.324660000000     0.824660000000     0          
C2056    C      0.595600000000     0.350430000000     0.850430000000     0          
C2057    C      0.121870000000     0.203820000000     0.203820000000     0          
C2058    C      0.116630000000     0.229990000000     0.229990000000     0          
C2059    C      0.107700000000     0.278600000000     0.278600000000     0          
C2060    C      0.101300000000     0.303700000000     0.303700000000     0          
C2061    C      0.096400000000     0.324660000000     0.324660000000     0          
C2062    C      0.095600000000     0.350430000000     0.350430000000     0          
C2063    C      0.628130000000     0.546180000000     0.203820000000     0          
C2064    C      0.633370000000     0.520010000000     0.229990000000     0          
C2065    C      0.642300000000     0.471400000000     0.278600000000     0          
C2066    C      0.648700000000     0.446300000000     0.303700000000     0          
C2067    C      0.653600000000     0.425340000000     0.324660000000     0          
C2068    C      0.654400000000     0.399570000000     0.350430000000     0          
C2069    C      0.628130000000     0.046180000000     0.703820000000     0          
C2070    C      0.633370000000     0.020010000000     0.729990000000     0          
C2071    C      0.642300000000     0.971400000000     0.778600000000     0          
C2072    C      0.648700000000     0.946300000000     0.803700000000     0          
C2073    C      0.653600000000     0.925340000000     0.824660000000     0          
C2074    C      0.654400000000     0.899570000000     0.850430000000     0          
C2075    C      0.128130000000     0.703820000000     0.546180000000     0          
C2076    C      0.133370000000     0.729990000000     0.520010000000     0          
C2077    C      0.142300000000     0.778600000000     0.471400000000     0          
C2078    C      0.148700000000     0.803700000000     0.446300000000     0          
C2079    C      0.153600000000     0.824660000000     0.425340000000     0          
C2080    C      0.154400000000     0.850430000000     0.399570000000     0          
C2081    C      0.703820000000     0.546180000000     0.128130000000     0          
C2082    C      0.729990000000     0.520010000000     0.133370000000     0          
C2083    C      0.778600000000     0.471400000000     0.142300000000     0          
C2084    C      0.803700000000     0.446300000000     0.148700000000     0          
C2085    C      0.824660000000     0.425340000000     0.153600000000     0          
C2086    C      0.850430000000     0.399570000000     0.154400000000     0          
C2087    C      0.703820000000     0.046180000000     0.628130000000     0          
C2088    C      0.729990000000     0.020010000000     0.633370000000     0          
C2089    C      0.778600000000     0.971400000000     0.642300000000     0          
C2090    C      0.803700000000     0.946300000000     0.648700000000     0          
C2091    C      0.824660000000     0.925340000000     0.653600000000     0          
C2092    C      0.850430000000     0.899570000000     0.654400000000     0          
C2093    C      0.546180000000     0.203820000000     0.628130000000     0          
C2094    C      0.520010000000     0.229990000000     0.633370000000     0          
C2095    C      0.471400000000     0.278600000000     0.642300000000     0          
C2096    C      0.446300000000     0.303700000000     0.648700000000     0          
C2097    C      0.425340000000     0.324660000000     0.653600000000     0          
C2098    C      0.399570000000     0.350430000000     0.654400000000     0          
C2099    C      0.203820000000     0.703820000000     0.621870000000     0          
C2100    C      0.229990000000     0.729990000000     0.616630000000     0          
C2101    C      0.278600000000     0.778600000000     0.607700000000     0          
C2102    C      0.303700000000     0.803700000000     0.601300000000     0          
C2103    C      0.324660000000     0.824660000000     0.596400000000     0          
C2104    C      0.350430000000     0.850430000000     0.595600000000     0          
C2105    C      0.203820000000     0.203820000000     0.121870000000     0          
C2106    C      0.229990000000     0.229990000000     0.116630000000     0          
C2107    C      0.278600000000     0.278600000000     0.107700000000     0          
C2108    C      0.303700000000     0.303700000000     0.101300000000     0          
C2109    C      0.324660000000     0.324660000000     0.096400000000     0          
C2110    C      0.350430000000     0.350430000000     0.095600000000     0          
C2111    C      0.546180000000     0.128130000000     0.703820000000     0          
C2112    C      0.520010000000     0.133370000000     0.729990000000     0          
C2113    C      0.471400000000     0.142300000000     0.778600000000     0          
C2114    C      0.446300000000     0.148700000000     0.803700000000     0          
C2115    C      0.425340000000     0.153600000000     0.824660000000     0          
C2116    C      0.399570000000     0.154400000000     0.850430000000     0          
C2117    C      0.703820000000     0.621870000000     0.203820000000     0          
C2118    C      0.729990000000     0.616630000000     0.229990000000     0          
C2119    C      0.778600000000     0.607700000000     0.278600000000     0          
C2120    C      0.803700000000     0.601300000000     0.303700000000     0          
C2121    C      0.824660000000     0.596400000000     0.324660000000     0          
C2122    C      0.850430000000     0.595600000000     0.350430000000     0          
C2123    C      0.203820000000     0.628130000000     0.546180000000     0          
C2124    C      0.229990000000     0.633370000000     0.520010000000     0          
C2125    C      0.278600000000     0.642300000000     0.471400000000     0          
C2126    C      0.303700000000     0.648700000000     0.446300000000     0          
C2127    C      0.324660000000     0.653600000000     0.425340000000     0          
C2128    C      0.350430000000     0.654400000000     0.399570000000     0          
H2129    H      0.681960000000     0.137110000000     0.822450000000     0          
H2130    H      0.637110000000     0.181960000000     0.822450000000     0          
H2131    H      0.637110000000     0.322450000000     0.681960000000     0          
H2132    H      0.681960000000     0.322450000000     0.637110000000     0          
H2133    H      0.681960000000     0.637110000000     0.322450000000     0          
H2134    H      0.637110000000     0.681960000000     0.322450000000     0          
H2135    H      0.637110000000     0.822450000000     0.181960000000     0          
H2136    H      0.681960000000     0.822450000000     0.137110000000     0          
H2137    H      0.572450000000     0.387110000000     0.818040000000     0          
H2138    H      0.572450000000     0.431960000000     0.862890000000     0          
H2139    H      0.818040000000     0.072450000000     0.887110000000     0          
H2140    H      0.862890000000     0.072450000000     0.931960000000     0          
H2141    H      0.931960000000     0.677550000000     0.887110000000     0          
H2142    H      0.887110000000     0.677550000000     0.931960000000     0          
H2143    H      0.887110000000     0.931960000000     0.677550000000     0          
H2144    H      0.931960000000     0.887110000000     0.677550000000     0          
H2145    H      0.612890000000     0.927550000000     0.681960000000     0          
H2146    H      0.568040000000     0.927550000000     0.637110000000     0          
H2147    H      0.681960000000     0.612890000000     0.927550000000     0          
H2148    H      0.637110000000     0.568040000000     0.927550000000     0          
H2149    H      0.927550000000     0.568040000000     0.637110000000     0          
H2150    H      0.927550000000     0.612890000000     0.681960000000     0          
H2151    H      0.572450000000     0.887110000000     0.318040000000     0          
H2152    H      0.572450000000     0.931960000000     0.362890000000     0          
H2153    H      0.431960000000     0.572450000000     0.862890000000     0          
H2154    H      0.387110000000     0.572450000000     0.818040000000     0          
H2155    H      0.887110000000     0.318040000000     0.572450000000     0          
H2156    H      0.931960000000     0.362890000000     0.572450000000     0          
H2157    H      0.072450000000     0.387110000000     0.318040000000     0          
H2158    H      0.072450000000     0.431960000000     0.362890000000     0          
H2159    H      0.427550000000     0.068040000000     0.637110000000     0          
H2160    H      0.427550000000     0.112890000000     0.681960000000     0          
H2161    H      0.362890000000     0.931960000000     0.572450000000     0          
H2162    H      0.318040000000     0.887110000000     0.572450000000     0          
H2163    H      0.927550000000     0.181960000000     0.112890000000     0          
H2164    H      0.927550000000     0.137110000000     0.068040000000     0          
H2165    H      0.677550000000     0.862890000000     0.818040000000     0          
H2166    H      0.677550000000     0.818040000000     0.862890000000     0          
H2167    H      0.387110000000     0.431960000000     0.677550000000     0          
H2168    H      0.431960000000     0.387110000000     0.677550000000     0          
H2169    H      0.318040000000     0.177550000000     0.862890000000     0          
H2170    H      0.362890000000     0.177550000000     0.818040000000     0          
H2171    H      0.177550000000     0.387110000000     0.931960000000     0          
H2172    H      0.177550000000     0.431960000000     0.887110000000     0          
H2173    H      0.822450000000     0.068040000000     0.612890000000     0          
H2174    H      0.822450000000     0.112890000000     0.568040000000     0          
H2175    H      0.931960000000     0.572450000000     0.362890000000     0          
H2176    H      0.887110000000     0.572450000000     0.318040000000     0          
H2177    H      0.931960000000     0.177550000000     0.387110000000     0          
H2178    H      0.887110000000     0.177550000000     0.431960000000     0          
H2179    H      0.068040000000     0.612890000000     0.822450000000     0          
H2180    H      0.112890000000     0.568040000000     0.822450000000     0          
H2181    H      0.068040000000     0.137110000000     0.927550000000     0          
H2182    H      0.112890000000     0.181960000000     0.927550000000     0          
H2183    H      0.427550000000     0.568040000000     0.137110000000     0          
H2184    H      0.427550000000     0.612890000000     0.181960000000     0          
H2185    H      0.322450000000     0.568040000000     0.612890000000     0          
H2186    H      0.322450000000     0.612890000000     0.568040000000     0          
H2187    H      0.072450000000     0.862890000000     0.931960000000     0          
H2188    H      0.072450000000     0.818040000000     0.887110000000     0          
H2189    H      0.612890000000     0.181960000000     0.427550000000     0          
H2190    H      0.568040000000     0.137110000000     0.427550000000     0          
H2191    H      0.137110000000     0.427550000000     0.568040000000     0          
H2192    H      0.181960000000     0.427550000000     0.612890000000     0          
H2193    H      0.177550000000     0.862890000000     0.318040000000     0          
H2194    H      0.177550000000     0.818040000000     0.362890000000     0          
H2195    H      0.137110000000     0.927550000000     0.068040000000     0          
H2196    H      0.181960000000     0.927550000000     0.112890000000     0          
H2197    H      0.887110000000     0.818040000000     0.072450000000     0          
H2198    H      0.931960000000     0.862890000000     0.072450000000     0          
H2199    H      0.068040000000     0.637110000000     0.427550000000     0          
H2200    H      0.112890000000     0.681960000000     0.427550000000     0          
H2201    H      0.181960000000     0.137110000000     0.322450000000     0          
H2202    H      0.137110000000     0.181960000000     0.322450000000     0          
H2203    H      0.318040000000     0.677550000000     0.362890000000     0          
H2204    H      0.362890000000     0.677550000000     0.318040000000     0          
H2205    H      0.387110000000     0.931960000000     0.177550000000     0          
H2206    H      0.431960000000     0.887110000000     0.177550000000     0          
H2207    H      0.322450000000     0.181960000000     0.137110000000     0          
H2208    H      0.322450000000     0.137110000000     0.181960000000     0          
H2209    H      0.112890000000     0.322450000000     0.068040000000     0          
H2210    H      0.068040000000     0.322450000000     0.112890000000     0          
H2211    H      0.431960000000     0.072450000000     0.362890000000     0          
H2212    H      0.387110000000     0.072450000000     0.318040000000     0          
H2213    H      0.362890000000     0.431960000000     0.072450000000     0          
H2214    H      0.318040000000     0.387110000000     0.072450000000     0          
H2215    H      0.677550000000     0.362890000000     0.318040000000     0          
H2216    H      0.677550000000     0.318040000000     0.362890000000     0          
H2217    H      0.637110000000     0.427550000000     0.068040000000     0          
H2218    H      0.681960000000     0.427550000000     0.112890000000     0          
H2219    H      0.822450000000     0.681960000000     0.137110000000     0          
H2220    H      0.822450000000     0.637110000000     0.181960000000     0          
H2221    H      0.862890000000     0.318040000000     0.177550000000     0          
H2222    H      0.818040000000     0.362890000000     0.177550000000     0          


