data_GEDYAS

_audit_creation_method RASPA-1.0
_audit_creation_date 2020-11-2
_audit_author_name 'Rocio Bueno-Perez'

_cell_length_a    40.0341
_cell_length_b    40.0341
_cell_length_c    40.0341
_cell_angle_alpha 90
_cell_angle_beta  90
_cell_angle_gamma 90
_cell_volume      64163.8

_symmetry_cell_setting          triclinic
_symmetry_space_group_name_Hall 'P 1'
_symmetry_space_group_name_H-M  'P 1'
_symmetry_Int_Tables_number     1

_symmetry_equiv_pos_as_xyz 'x,y,z'

loop_
_atom_site_label
_atom_site_type_symbol
_atom_site_fract_x
_atom_site_fract_y
_atom_site_fract_z
_atom_site_charge
O1       O      0.535900000000     0.125600000000     0.173390000000     0          
C2       C      0.486350000000     0.135660000000     0.220750000000     0          
H3       H      0.480100000000     0.133800000000     0.198400000000     0          
C4       C      0.462650000000     0.141530000000     0.244980000000     0          
H5       H      0.440400000000     0.144200000000     0.239000000000     0          
C6       C      0.367670000000     0.158640000000     0.342210000000     0          
H7       H      0.361300000000     0.158600000000     0.319900000000     0          
O8       O      0.535900000000     0.625600000000     0.673390000000     0          
C9       C      0.486350000000     0.635660000000     0.720750000000     0          
H10      H      0.480100000000     0.633800000000     0.698400000000     0          
C11      C      0.462650000000     0.641530000000     0.744980000000     0          
H12      H      0.440400000000     0.644200000000     0.739000000000     0          
C13      C      0.367670000000     0.658640000000     0.842210000000     0          
H14      H      0.361300000000     0.658600000000     0.819900000000     0          
O15      O      0.035900000000     0.125600000000     0.673390000000     0          
C16      C      0.986350000000     0.135660000000     0.720750000000     0          
H17      H      0.980100000000     0.133800000000     0.698400000000     0          
C18      C      0.962650000000     0.141530000000     0.744980000000     0          
H19      H      0.940400000000     0.144200000000     0.739000000000     0          
C20      C      0.867670000000     0.158640000000     0.842210000000     0          
H21      H      0.861300000000     0.158600000000     0.819900000000     0          
O22      O      0.035900000000     0.625600000000     0.173390000000     0          
C23      C      0.986350000000     0.635660000000     0.220750000000     0          
H24      H      0.980100000000     0.633800000000     0.198400000000     0          
C25      C      0.962650000000     0.641530000000     0.244980000000     0          
H26      H      0.940400000000     0.644200000000     0.239000000000     0          
C27      C      0.867670000000     0.658640000000     0.342210000000     0          
H28      H      0.861300000000     0.658600000000     0.319900000000     0          
O29      O      0.214100000000     0.124400000000     0.673390000000     0          
N30      N      0.397300000000     0.095100000000     0.809800000000     0          
C31      C      0.263650000000     0.114340000000     0.720750000000     0          
H32      H      0.269900000000     0.116200000000     0.698400000000     0          
C33      C      0.287350000000     0.108470000000     0.744980000000     0          
H34      H      0.309600000000     0.105800000000     0.739000000000     0          
C35      C      0.382330000000     0.091360000000     0.842210000000     0          
O36      O      0.214100000000     0.624400000000     0.173390000000     0          
N37      N      0.397300000000     0.595100000000     0.309800000000     0          
C38      C      0.263650000000     0.614340000000     0.220750000000     0          
H39      H      0.269900000000     0.616200000000     0.198400000000     0          
C40      C      0.287350000000     0.608470000000     0.244980000000     0          
H41      H      0.309600000000     0.605800000000     0.239000000000     0          
C42      C      0.382330000000     0.591360000000     0.342210000000     0          
O43      O      0.714100000000     0.124400000000     0.173390000000     0          
C44      C      0.763650000000     0.114340000000     0.220750000000     0          
H45      H      0.769900000000     0.116200000000     0.198400000000     0          
C46      C      0.787350000000     0.108470000000     0.244980000000     0          
H47      H      0.809600000000     0.105800000000     0.239000000000     0          
C48      C      0.882330000000     0.091360000000     0.342210000000     0          
H49      H      0.888700000000     0.091400000000     0.319900000000     0          
O50      O      0.714100000000     0.624400000000     0.673390000000     0          
N51      N      0.897300000000     0.595100000000     0.809800000000     0          
C52      C      0.763650000000     0.614340000000     0.720750000000     0          
H53      H      0.769900000000     0.616200000000     0.698400000000     0          
C54      C      0.787350000000     0.608470000000     0.744980000000     0          
H55      H      0.809600000000     0.605800000000     0.739000000000     0          
C56      C      0.882330000000     0.591360000000     0.842210000000     0          
O57      O      0.714100000000     0.625600000000     0.576610000000     0          
N58      N      0.897300000000     0.654900000000     0.440200000000     0          
C59      C      0.763650000000     0.635660000000     0.529250000000     0          
H60      H      0.769900000000     0.633800000000     0.551600000000     0          
C61      C      0.787350000000     0.641530000000     0.505020000000     0          
H62      H      0.809600000000     0.644200000000     0.511000000000     0          
C63      C      0.882330000000     0.658640000000     0.407790000000     0          
O64      O      0.714100000000     0.125600000000     0.076610000000     0          
N65      N      0.897300000000     0.154900000000     0.940200000000     0          
C66      C      0.763650000000     0.135660000000     0.029250000000     0          
H67      H      0.769900000000     0.133800000000     0.051600000000     0          
C68      C      0.787350000000     0.141530000000     0.005020000000     0          
H69      H      0.809600000000     0.144200000000     0.011000000000     0          
C70      C      0.882330000000     0.158640000000     0.907790000000     0          
O71      O      0.214100000000     0.625600000000     0.076610000000     0          
N72      N      0.397300000000     0.654900000000     0.940200000000     0          
C73      C      0.263650000000     0.635660000000     0.029250000000     0          
H74      H      0.269900000000     0.633800000000     0.051600000000     0          
C75      C      0.287350000000     0.641530000000     0.005020000000     0          
H76      H      0.309600000000     0.644200000000     0.011000000000     0          
C77      C      0.382330000000     0.658640000000     0.907790000000     0          
O78      O      0.214100000000     0.125600000000     0.576610000000     0          
N79      N      0.397300000000     0.154900000000     0.440200000000     0          
C80      C      0.263650000000     0.135660000000     0.529250000000     0          
H81      H      0.269900000000     0.133800000000     0.551600000000     0          
C82      C      0.287350000000     0.141530000000     0.505020000000     0          
H83      H      0.309600000000     0.144200000000     0.511000000000     0          
C84      C      0.382330000000     0.158640000000     0.407790000000     0          
O85      O      0.035900000000     0.624400000000     0.076610000000     0          
C86      C      0.986350000000     0.614340000000     0.029250000000     0          
H87      H      0.980100000000     0.616200000000     0.051600000000     0          
C88      C      0.962650000000     0.608470000000     0.005020000000     0          
H89      H      0.940400000000     0.605800000000     0.011000000000     0          
C90      C      0.867670000000     0.591360000000     0.907790000000     0          
H91      H      0.861300000000     0.591400000000     0.930100000000     0          
O92      O      0.035900000000     0.124400000000     0.576610000000     0          
N93      N      0.852700000000     0.095100000000     0.440200000000     0          
C94      C      0.986350000000     0.114340000000     0.529250000000     0          
H95      H      0.980100000000     0.116200000000     0.551600000000     0          
C96      C      0.962650000000     0.108470000000     0.505020000000     0          
H97      H      0.940400000000     0.105800000000     0.511000000000     0          
C98      C      0.867670000000     0.091360000000     0.407790000000     0          
O99      O      0.535900000000     0.624400000000     0.576610000000     0          
C100     C      0.486350000000     0.614340000000     0.529250000000     0          
H101     H      0.480100000000     0.616200000000     0.551600000000     0          
C102     C      0.462650000000     0.608470000000     0.505020000000     0          
H103     H      0.440400000000     0.605800000000     0.511000000000     0          
C104     C      0.367670000000     0.591360000000     0.407790000000     0          
H105     H      0.361300000000     0.591400000000     0.430100000000     0          
O106     O      0.535900000000     0.124400000000     0.076610000000     0          
C107     C      0.486350000000     0.114340000000     0.029250000000     0          
H108     H      0.480100000000     0.116200000000     0.051600000000     0          
C109     C      0.462650000000     0.108470000000     0.005020000000     0          
H110     H      0.440400000000     0.105800000000     0.011000000000     0          
C111     C      0.367670000000     0.091360000000     0.907790000000     0          
H112     H      0.361300000000     0.091400000000     0.930100000000     0          
O113     O      0.173390000000     0.535900000000     0.125600000000     0          
N114     N      0.309800000000     0.352700000000     0.154900000000     0          
C115     C      0.220750000000     0.486350000000     0.135660000000     0          
H116     H      0.198400000000     0.480100000000     0.133800000000     0          
C117     C      0.244980000000     0.462650000000     0.141530000000     0          
H118     H      0.239000000000     0.440400000000     0.144200000000     0          
C119     C      0.342210000000     0.367670000000     0.158640000000     0          
O120     O      0.173390000000     0.035900000000     0.625600000000     0          
C121     C      0.220750000000     0.986350000000     0.635660000000     0          
H122     H      0.198400000000     0.980100000000     0.633800000000     0          
C123     C      0.244980000000     0.962650000000     0.641530000000     0          
H124     H      0.239000000000     0.940400000000     0.644200000000     0          
C125     C      0.342210000000     0.867670000000     0.658640000000     0          
H126     H      0.319900000000     0.861300000000     0.658600000000     0          
O127     O      0.673390000000     0.535900000000     0.625600000000     0          
C128     C      0.720750000000     0.486350000000     0.635660000000     0          
H129     H      0.698400000000     0.480100000000     0.633800000000     0          
C130     C      0.744980000000     0.462650000000     0.641530000000     0          
H131     H      0.739000000000     0.440400000000     0.644200000000     0          
C132     C      0.842210000000     0.367670000000     0.658640000000     0          
H133     H      0.819900000000     0.361300000000     0.658600000000     0          
O134     O      0.673390000000     0.035900000000     0.125600000000     0          
C135     C      0.720750000000     0.986350000000     0.135660000000     0          
H136     H      0.698400000000     0.980100000000     0.133800000000     0          
C137     C      0.744980000000     0.962650000000     0.141530000000     0          
H138     H      0.739000000000     0.940400000000     0.144200000000     0          
C139     C      0.842210000000     0.867670000000     0.158640000000     0          
H140     H      0.819900000000     0.861300000000     0.158600000000     0          
O141     O      0.673390000000     0.214100000000     0.124400000000     0          
N142     N      0.809800000000     0.397300000000     0.095100000000     0          
C143     C      0.720750000000     0.263650000000     0.114340000000     0          
H144     H      0.698400000000     0.269900000000     0.116200000000     0          
C145     C      0.744980000000     0.287350000000     0.108470000000     0          
H146     H      0.739000000000     0.309600000000     0.105800000000     0          
C147     C      0.842210000000     0.382330000000     0.091360000000     0          
O148     O      0.673390000000     0.714100000000     0.624400000000     0          
C149     C      0.720750000000     0.763650000000     0.614340000000     0          
H150     H      0.698400000000     0.769900000000     0.616200000000     0          
C151     C      0.744980000000     0.787350000000     0.608470000000     0          
H152     H      0.739000000000     0.809600000000     0.605800000000     0          
C153     C      0.842210000000     0.882330000000     0.591360000000     0          
H154     H      0.819900000000     0.888700000000     0.591400000000     0          
O155     O      0.173390000000     0.214100000000     0.624400000000     0          
C156     C      0.220750000000     0.263650000000     0.614340000000     0          
H157     H      0.198400000000     0.269900000000     0.616200000000     0          
C158     C      0.244980000000     0.287350000000     0.608470000000     0          
H159     H      0.239000000000     0.309600000000     0.605800000000     0          
C160     C      0.342210000000     0.382330000000     0.591360000000     0          
H161     H      0.319900000000     0.388700000000     0.591400000000     0          
O162     O      0.173390000000     0.714100000000     0.124400000000     0          
C163     C      0.220750000000     0.763650000000     0.114340000000     0          
H164     H      0.198400000000     0.769900000000     0.116200000000     0          
C165     C      0.244980000000     0.787350000000     0.108470000000     0          
H166     H      0.239000000000     0.809600000000     0.105800000000     0          
C167     C      0.342210000000     0.882330000000     0.091360000000     0          
H168     H      0.319900000000     0.888700000000     0.091400000000     0          
O169     O      0.576610000000     0.714100000000     0.625600000000     0          
N170     N      0.440200000000     0.897300000000     0.654900000000     0          
C171     C      0.529250000000     0.763650000000     0.635660000000     0          
H172     H      0.551600000000     0.769900000000     0.633800000000     0          
C173     C      0.505020000000     0.787350000000     0.641530000000     0          
H174     H      0.511000000000     0.809600000000     0.644200000000     0          
C175     C      0.407790000000     0.882330000000     0.658640000000     0          
O176     O      0.576610000000     0.214100000000     0.125600000000     0          
C177     C      0.529250000000     0.263650000000     0.135660000000     0          
H178     H      0.551600000000     0.269900000000     0.133800000000     0          
C179     C      0.505020000000     0.287350000000     0.141530000000     0          
H180     H      0.511000000000     0.309600000000     0.144200000000     0          
C181     C      0.407790000000     0.382330000000     0.158640000000     0          
H182     H      0.430100000000     0.388700000000     0.158600000000     0          
O183     O      0.076610000000     0.714100000000     0.125600000000     0          
N184     N      0.940200000000     0.897300000000     0.154900000000     0          
C185     C      0.029250000000     0.763650000000     0.135660000000     0          
H186     H      0.051600000000     0.769900000000     0.133800000000     0          
C187     C      0.005020000000     0.787350000000     0.141530000000     0          
H188     H      0.011000000000     0.809600000000     0.144200000000     0          
C189     C      0.907790000000     0.882330000000     0.158640000000     0          
O190     O      0.076610000000     0.214100000000     0.625600000000     0          
N191     N      0.940200000000     0.397300000000     0.654900000000     0          
C192     C      0.029250000000     0.263650000000     0.635660000000     0          
H193     H      0.051600000000     0.269900000000     0.633800000000     0          
C194     C      0.005020000000     0.287350000000     0.641530000000     0          
H195     H      0.011000000000     0.309600000000     0.644200000000     0          
C196     C      0.907790000000     0.382330000000     0.658640000000     0          
O197     O      0.076610000000     0.035900000000     0.624400000000     0          
N198     N      0.940200000000     0.852700000000     0.595100000000     0          
C199     C      0.029250000000     0.986350000000     0.614340000000     0          
H200     H      0.051600000000     0.980100000000     0.616200000000     0          
C201     C      0.005020000000     0.962650000000     0.608470000000     0          
H202     H      0.011000000000     0.940400000000     0.605800000000     0          
C203     C      0.907790000000     0.867670000000     0.591360000000     0          
O204     O      0.076610000000     0.535900000000     0.124400000000     0          
C205     C      0.029250000000     0.486350000000     0.114340000000     0          
H206     H      0.051600000000     0.480100000000     0.116200000000     0          
C207     C      0.005020000000     0.462650000000     0.108470000000     0          
H208     H      0.011000000000     0.440400000000     0.105800000000     0          
C209     C      0.907790000000     0.367670000000     0.091360000000     0          
H210     H      0.930100000000     0.361300000000     0.091400000000     0          
O211     O      0.576610000000     0.035900000000     0.124400000000     0          
N212     N      0.440200000000     0.852700000000     0.095100000000     0          
C213     C      0.529250000000     0.986350000000     0.114340000000     0          
H214     H      0.551600000000     0.980100000000     0.116200000000     0          
C215     C      0.505020000000     0.962650000000     0.108470000000     0          
H216     H      0.511000000000     0.940400000000     0.105800000000     0          
C217     C      0.407790000000     0.867670000000     0.091360000000     0          
O218     O      0.576610000000     0.535900000000     0.624400000000     0          
N219     N      0.440200000000     0.352700000000     0.595100000000     0          
C220     C      0.529250000000     0.486350000000     0.614340000000     0          
H221     H      0.551600000000     0.480100000000     0.616200000000     0          
C222     C      0.505020000000     0.462650000000     0.608470000000     0          
H223     H      0.511000000000     0.440400000000     0.605800000000     0          
C224     C      0.407790000000     0.367670000000     0.591360000000     0          
O225     O      0.125600000000     0.173390000000     0.535900000000     0          
C226     C      0.135660000000     0.220750000000     0.486350000000     0          
H227     H      0.133800000000     0.198400000000     0.480100000000     0          
C228     C      0.141530000000     0.244980000000     0.462650000000     0          
H229     H      0.144200000000     0.239000000000     0.440400000000     0          
C230     C      0.158640000000     0.342210000000     0.367670000000     0          
H231     H      0.158600000000     0.319900000000     0.361300000000     0          
O232     O      0.125600000000     0.673390000000     0.035900000000     0          
C233     C      0.135660000000     0.720750000000     0.986350000000     0          
H234     H      0.133800000000     0.698400000000     0.980100000000     0          
C235     C      0.141530000000     0.744980000000     0.962650000000     0          
H236     H      0.144200000000     0.739000000000     0.940400000000     0          
C237     C      0.158640000000     0.842210000000     0.867670000000     0          
H238     H      0.158600000000     0.819900000000     0.861300000000     0          
O239     O      0.625600000000     0.173390000000     0.035900000000     0          
N240     N      0.654900000000     0.309800000000     0.852700000000     0          
C241     C      0.635660000000     0.220750000000     0.986350000000     0          
H242     H      0.633800000000     0.198400000000     0.980100000000     0          
C243     C      0.641530000000     0.244980000000     0.962650000000     0          
H244     H      0.644200000000     0.239000000000     0.940400000000     0          
C245     C      0.658640000000     0.342210000000     0.867670000000     0          
O246     O      0.625600000000     0.673390000000     0.535900000000     0          
C247     C      0.635660000000     0.720750000000     0.486350000000     0          
H248     H      0.633800000000     0.698400000000     0.480100000000     0          
C249     C      0.641530000000     0.744980000000     0.462650000000     0          
H250     H      0.644200000000     0.739000000000     0.440400000000     0          
C251     C      0.658640000000     0.842210000000     0.367670000000     0          
H252     H      0.658600000000     0.819900000000     0.361300000000     0          
O253     O      0.124400000000     0.673390000000     0.214100000000     0          
N254     N      0.095100000000     0.809800000000     0.397300000000     0          
C255     C      0.114340000000     0.720750000000     0.263650000000     0          
H256     H      0.116200000000     0.698400000000     0.269900000000     0          
C257     C      0.108470000000     0.744980000000     0.287350000000     0          
H258     H      0.105800000000     0.739000000000     0.309600000000     0          
C259     C      0.091360000000     0.842210000000     0.382330000000     0          
O260     O      0.124400000000     0.173390000000     0.714100000000     0          
C261     C      0.114340000000     0.220750000000     0.763650000000     0          
H262     H      0.116200000000     0.198400000000     0.769900000000     0          
C263     C      0.108470000000     0.244980000000     0.787350000000     0          
H264     H      0.105800000000     0.239000000000     0.809600000000     0          
C265     C      0.091360000000     0.342210000000     0.882330000000     0          
H266     H      0.091400000000     0.319900000000     0.888700000000     0          
O267     O      0.624400000000     0.673390000000     0.714100000000     0          
N268     N      0.595100000000     0.809800000000     0.897300000000     0          
C269     C      0.614340000000     0.720750000000     0.763650000000     0          
H270     H      0.616200000000     0.698400000000     0.769900000000     0          
C271     C      0.608470000000     0.744980000000     0.787350000000     0          
H272     H      0.605800000000     0.739000000000     0.809600000000     0          
C273     C      0.591360000000     0.842210000000     0.882330000000     0          
O274     O      0.624400000000     0.173390000000     0.214100000000     0          
N275     N      0.595100000000     0.309800000000     0.397300000000     0          
C276     C      0.614340000000     0.220750000000     0.263650000000     0          
H277     H      0.616200000000     0.198400000000     0.269900000000     0          
C278     C      0.608470000000     0.244980000000     0.287350000000     0          
H279     H      0.605800000000     0.239000000000     0.309600000000     0          
C280     C      0.591360000000     0.342210000000     0.382330000000     0          
O281     O      0.625600000000     0.576610000000     0.714100000000     0          
C282     C      0.635660000000     0.529250000000     0.763650000000     0          
H283     H      0.633800000000     0.551600000000     0.769900000000     0          
C284     C      0.641530000000     0.505020000000     0.787350000000     0          
H285     H      0.644200000000     0.511000000000     0.809600000000     0          
C286     C      0.658640000000     0.407790000000     0.882330000000     0          
H287     H      0.658600000000     0.430100000000     0.888700000000     0          
O288     O      0.625600000000     0.076610000000     0.214100000000     0          
N289     N      0.654900000000     0.940200000000     0.397300000000     0          
C290     C      0.635660000000     0.029250000000     0.263650000000     0          
H291     H      0.633800000000     0.051600000000     0.269900000000     0          
C292     C      0.641530000000     0.005020000000     0.287350000000     0          
H293     H      0.644200000000     0.011000000000     0.309600000000     0          
C294     C      0.658640000000     0.907790000000     0.382330000000     0          
O295     O      0.125600000000     0.576610000000     0.214100000000     0          
N296     N      0.154900000000     0.440200000000     0.397300000000     0          
C297     C      0.135660000000     0.529250000000     0.263650000000     0          
H298     H      0.133800000000     0.551600000000     0.269900000000     0          
C299     C      0.141530000000     0.505020000000     0.287350000000     0          
H300     H      0.144200000000     0.511000000000     0.309600000000     0          
C301     C      0.158640000000     0.407790000000     0.382330000000     0          
O302     O      0.125600000000     0.076610000000     0.714100000000     0          
N303     N      0.154900000000     0.940200000000     0.897300000000     0          
C304     C      0.135660000000     0.029250000000     0.763650000000     0          
H305     H      0.133800000000     0.051600000000     0.769900000000     0          
C306     C      0.141530000000     0.005020000000     0.787350000000     0          
H307     H      0.144200000000     0.011000000000     0.809600000000     0          
C308     C      0.158640000000     0.907790000000     0.882330000000     0          
O309     O      0.624400000000     0.076610000000     0.035900000000     0          
C310     C      0.614340000000     0.029250000000     0.986350000000     0          
H311     H      0.616200000000     0.051600000000     0.980100000000     0          
C312     C      0.608470000000     0.005020000000     0.962650000000     0          
H313     H      0.605800000000     0.011000000000     0.940400000000     0          
C314     C      0.591360000000     0.907790000000     0.867670000000     0          
H315     H      0.591400000000     0.930100000000     0.861300000000     0          
O316     O      0.624400000000     0.576610000000     0.535900000000     0          
C317     C      0.614340000000     0.529250000000     0.486350000000     0          
H318     H      0.616200000000     0.551600000000     0.480100000000     0          
C319     C      0.608470000000     0.505020000000     0.462650000000     0          
H320     H      0.605800000000     0.511000000000     0.440400000000     0          
C321     C      0.591360000000     0.407790000000     0.367670000000     0          
H322     H      0.591400000000     0.430100000000     0.361300000000     0          
O323     O      0.124400000000     0.076610000000     0.535900000000     0          
C324     C      0.114340000000     0.029250000000     0.486350000000     0          
H325     H      0.116200000000     0.051600000000     0.480100000000     0          
C326     C      0.108470000000     0.005020000000     0.462650000000     0          
H327     H      0.105800000000     0.011000000000     0.440400000000     0          
C328     C      0.091360000000     0.907790000000     0.367670000000     0          
H329     H      0.091400000000     0.930100000000     0.361300000000     0          
O330     O      0.124400000000     0.576610000000     0.035900000000     0          
N331     N      0.095100000000     0.440200000000     0.852700000000     0          
C332     C      0.114340000000     0.529250000000     0.986350000000     0          
H333     H      0.116200000000     0.551600000000     0.980100000000     0          
C334     C      0.108470000000     0.505020000000     0.962650000000     0          
H335     H      0.105800000000     0.511000000000     0.940400000000     0          
C336     C      0.091360000000     0.407790000000     0.867670000000     0          
O337     O      0.875600000000     0.785900000000     0.326610000000     0          
C338     C      0.885660000000     0.736350000000     0.279250000000     0          
H339     H      0.883800000000     0.730100000000     0.301600000000     0          
C340     C      0.891530000000     0.712650000000     0.255020000000     0          
H341     H      0.894200000000     0.690400000000     0.261000000000     0          
C342     C      0.908640000000     0.617670000000     0.157790000000     0          
H343     H      0.908600000000     0.611300000000     0.180100000000     0          
O344     O      0.875600000000     0.285900000000     0.826610000000     0          
C345     C      0.885660000000     0.236350000000     0.779250000000     0          
H346     H      0.883800000000     0.230100000000     0.801600000000     0          
C347     C      0.891530000000     0.212650000000     0.755020000000     0          
H348     H      0.894200000000     0.190400000000     0.761000000000     0          
C349     C      0.908640000000     0.117670000000     0.657790000000     0          
H350     H      0.908600000000     0.111300000000     0.680100000000     0          
O351     O      0.375600000000     0.785900000000     0.826610000000     0          
C352     C      0.385660000000     0.736350000000     0.779250000000     0          
H353     H      0.383800000000     0.730100000000     0.801600000000     0          
C354     C      0.391530000000     0.712650000000     0.755020000000     0          
H355     H      0.394200000000     0.690400000000     0.761000000000     0          
C356     C      0.408640000000     0.617670000000     0.657790000000     0          
H357     H      0.408600000000     0.611300000000     0.680100000000     0          
O358     O      0.375600000000     0.285900000000     0.326610000000     0          
N359     N      0.404900000000     0.102700000000     0.190200000000     0          
C360     C      0.385660000000     0.236350000000     0.279250000000     0          
H361     H      0.383800000000     0.230100000000     0.301600000000     0          
C362     C      0.391530000000     0.212650000000     0.255020000000     0          
H363     H      0.394200000000     0.190400000000     0.261000000000     0          
C364     C      0.408640000000     0.117670000000     0.157790000000     0          
O365     O      0.874400000000     0.464100000000     0.826610000000     0          
C366     C      0.864340000000     0.513650000000     0.779250000000     0          
H367     H      0.866200000000     0.519900000000     0.801600000000     0          
C368     C      0.858470000000     0.537350000000     0.755020000000     0          
H369     H      0.855800000000     0.559600000000     0.761000000000     0          
C370     C      0.841360000000     0.632330000000     0.657790000000     0          
H371     H      0.841400000000     0.638700000000     0.680100000000     0          
O372     O      0.874400000000     0.964100000000     0.326610000000     0          
C373     C      0.864340000000     0.013650000000     0.279250000000     0          
H374     H      0.866200000000     0.019900000000     0.301600000000     0          
C375     C      0.858470000000     0.037350000000     0.255020000000     0          
H376     H      0.855800000000     0.059600000000     0.261000000000     0          
C377     C      0.841360000000     0.132330000000     0.157790000000     0          
H378     H      0.841400000000     0.138700000000     0.180100000000     0          
O379     O      0.374400000000     0.464100000000     0.326610000000     0          
N380     N      0.345100000000     0.647300000000     0.190200000000     0          
C381     C      0.364340000000     0.513650000000     0.279250000000     0          
H382     H      0.366200000000     0.519900000000     0.301600000000     0          
C383     C      0.358470000000     0.537350000000     0.255020000000     0          
H384     H      0.355800000000     0.559600000000     0.261000000000     0          
C385     C      0.341360000000     0.632330000000     0.157790000000     0          
O386     O      0.374400000000     0.964100000000     0.826610000000     0          
C387     C      0.364340000000     0.013650000000     0.779250000000     0          
H388     H      0.366200000000     0.019900000000     0.801600000000     0          
C389     C      0.358470000000     0.037350000000     0.755020000000     0          
H390     H      0.355800000000     0.059600000000     0.761000000000     0          
C391     C      0.341360000000     0.132330000000     0.657790000000     0          
H392     H      0.341400000000     0.138700000000     0.680100000000     0          
O393     O      0.375600000000     0.964100000000     0.923390000000     0          
C394     C      0.385660000000     0.013650000000     0.970750000000     0          
H395     H      0.383800000000     0.019900000000     0.948400000000     0          
C396     C      0.391530000000     0.037350000000     0.994980000000     0          
H397     H      0.394200000000     0.059600000000     0.989000000000     0          
C398     C      0.408640000000     0.132330000000     0.092210000000     0          
H399     H      0.408600000000     0.138700000000     0.069900000000     0          
O400     O      0.375600000000     0.464100000000     0.423390000000     0          
N401     N      0.404900000000     0.647300000000     0.559800000000     0          
C402     C      0.385660000000     0.513650000000     0.470750000000     0          
H403     H      0.383800000000     0.519900000000     0.448400000000     0          
C404     C      0.391530000000     0.537350000000     0.494980000000     0          
H405     H      0.394200000000     0.559600000000     0.489000000000     0          
C406     C      0.408640000000     0.632330000000     0.592210000000     0          
O407     O      0.875600000000     0.964100000000     0.423390000000     0          
N408     N      0.904900000000     0.147300000000     0.559800000000     0          
C409     C      0.885660000000     0.013650000000     0.470750000000     0          
H410     H      0.883800000000     0.019900000000     0.448400000000     0          
C411     C      0.891530000000     0.037350000000     0.494980000000     0          
H412     H      0.894200000000     0.059600000000     0.489000000000     0          
C413     C      0.908640000000     0.132330000000     0.592210000000     0          
O414     O      0.875600000000     0.464100000000     0.923390000000     0          
N415     N      0.904900000000     0.647300000000     0.059800000000     0          
C416     C      0.885660000000     0.513650000000     0.970750000000     0          
H417     H      0.883800000000     0.519900000000     0.948400000000     0          
C418     C      0.891530000000     0.537350000000     0.994980000000     0          
H419     H      0.894200000000     0.559600000000     0.989000000000     0          
C420     C      0.908640000000     0.632330000000     0.092210000000     0          
O421     O      0.374400000000     0.285900000000     0.423390000000     0          
N422     N      0.345100000000     0.102700000000     0.559800000000     0          
C423     C      0.364340000000     0.236350000000     0.470750000000     0          
H424     H      0.366200000000     0.230100000000     0.448400000000     0          
C425     C      0.358470000000     0.212650000000     0.494980000000     0          
H426     H      0.355800000000     0.190400000000     0.489000000000     0          
C427     C      0.341360000000     0.117670000000     0.592210000000     0          
O428     O      0.374400000000     0.785900000000     0.923390000000     0          
C429     C      0.364340000000     0.736350000000     0.970750000000     0          
H430     H      0.366200000000     0.730100000000     0.948400000000     0          
C431     C      0.358470000000     0.712650000000     0.994980000000     0          
H432     H      0.355800000000     0.690400000000     0.989000000000     0          
C433     C      0.341360000000     0.617670000000     0.092210000000     0          
H434     H      0.341400000000     0.611300000000     0.069900000000     0          
O435     O      0.874400000000     0.285900000000     0.923390000000     0          
N436     N      0.845100000000     0.102700000000     0.059800000000     0          
C437     C      0.864340000000     0.236350000000     0.970750000000     0          
H438     H      0.866200000000     0.230100000000     0.948400000000     0          
C439     C      0.858470000000     0.212650000000     0.994980000000     0          
H440     H      0.855800000000     0.190400000000     0.989000000000     0          
C441     C      0.841360000000     0.117670000000     0.092210000000     0          
O442     O      0.874400000000     0.785900000000     0.423390000000     0          
N443     N      0.845100000000     0.602700000000     0.559800000000     0          
C444     C      0.864340000000     0.736350000000     0.470750000000     0          
H445     H      0.866200000000     0.730100000000     0.448400000000     0          
C446     C      0.858470000000     0.712650000000     0.494980000000     0          
H447     H      0.855800000000     0.690400000000     0.489000000000     0          
C448     C      0.841360000000     0.617670000000     0.592210000000     0          
O449     O      0.285900000000     0.423390000000     0.374400000000     0          
N450     N      0.102700000000     0.559800000000     0.345100000000     0          
C451     C      0.236350000000     0.470750000000     0.364340000000     0          
H452     H      0.230100000000     0.448400000000     0.366200000000     0          
C453     C      0.212650000000     0.494980000000     0.358470000000     0          
H454     H      0.190400000000     0.489000000000     0.355800000000     0          
C455     C      0.117670000000     0.592210000000     0.341360000000     0          
O456     O      0.285900000000     0.923390000000     0.874400000000     0          
N457     N      0.102700000000     0.059800000000     0.845100000000     0          
C458     C      0.236350000000     0.970750000000     0.864340000000     0          
H459     H      0.230100000000     0.948400000000     0.866200000000     0          
C460     C      0.212650000000     0.994980000000     0.858470000000     0          
H461     H      0.190400000000     0.989000000000     0.855800000000     0          
C462     C      0.117670000000     0.092210000000     0.841360000000     0          
O463     O      0.785900000000     0.423390000000     0.874400000000     0          
N464     N      0.602700000000     0.559800000000     0.845100000000     0          
C465     C      0.736350000000     0.470750000000     0.864340000000     0          
H466     H      0.730100000000     0.448400000000     0.866200000000     0          
C467     C      0.712650000000     0.494980000000     0.858470000000     0          
H468     H      0.690400000000     0.489000000000     0.855800000000     0          
C469     C      0.617670000000     0.592210000000     0.841360000000     0          
O470     O      0.785900000000     0.923390000000     0.374400000000     0          
N471     N      0.602700000000     0.059800000000     0.345100000000     0          
C472     C      0.736350000000     0.970750000000     0.364340000000     0          
H473     H      0.730100000000     0.948400000000     0.366200000000     0          
C474     C      0.712650000000     0.994980000000     0.358470000000     0          
H475     H      0.690400000000     0.989000000000     0.355800000000     0          
C476     C      0.617670000000     0.092210000000     0.341360000000     0          
O477     O      0.964100000000     0.923390000000     0.375600000000     0          
N478     N      0.147300000000     0.059800000000     0.404900000000     0          
C479     C      0.013650000000     0.970750000000     0.385660000000     0          
H480     H      0.019900000000     0.948400000000     0.383800000000     0          
C481     C      0.037350000000     0.994980000000     0.391530000000     0          
H482     H      0.059600000000     0.989000000000     0.394200000000     0          
C483     C      0.132330000000     0.092210000000     0.408640000000     0          
O484     O      0.964100000000     0.423390000000     0.875600000000     0          
C485     C      0.013650000000     0.470750000000     0.885660000000     0          
H486     H      0.019900000000     0.448400000000     0.883800000000     0          
C487     C      0.037350000000     0.494980000000     0.891530000000     0          
H488     H      0.059600000000     0.489000000000     0.894200000000     0          
C489     C      0.132330000000     0.592210000000     0.908640000000     0          
H490     H      0.138700000000     0.569900000000     0.908600000000     0          
O491     O      0.464100000000     0.923390000000     0.875600000000     0          
C492     C      0.513650000000     0.970750000000     0.885660000000     0          
H493     H      0.519900000000     0.948400000000     0.883800000000     0          
C494     C      0.537350000000     0.994980000000     0.891530000000     0          
H495     H      0.559600000000     0.989000000000     0.894200000000     0          
C496     C      0.632330000000     0.092210000000     0.908640000000     0          
H497     H      0.638700000000     0.069900000000     0.908600000000     0          
O498     O      0.464100000000     0.423390000000     0.375600000000     0          
C499     C      0.513650000000     0.470750000000     0.385660000000     0          
H500     H      0.519900000000     0.448400000000     0.383800000000     0          
C501     C      0.537350000000     0.494980000000     0.391530000000     0          
H502     H      0.559600000000     0.489000000000     0.394200000000     0          
C503     C      0.632330000000     0.592210000000     0.408640000000     0          
H504     H      0.638700000000     0.569900000000     0.408600000000     0          
O505     O      0.464100000000     0.826610000000     0.874400000000     0          
C506     C      0.513650000000     0.779250000000     0.864340000000     0          
H507     H      0.519900000000     0.801600000000     0.866200000000     0          
C508     C      0.537350000000     0.755020000000     0.858470000000     0          
H509     H      0.559600000000     0.761000000000     0.855800000000     0          
C510     C      0.632330000000     0.657790000000     0.841360000000     0          
H511     H      0.638700000000     0.680100000000     0.841400000000     0          
O512     O      0.464100000000     0.326610000000     0.374400000000     0          
C513     C      0.513650000000     0.279250000000     0.364340000000     0          
H514     H      0.519900000000     0.301600000000     0.366200000000     0          
C515     C      0.537350000000     0.255020000000     0.358470000000     0          
H516     H      0.559600000000     0.261000000000     0.355800000000     0          
C517     C      0.632330000000     0.157790000000     0.341360000000     0          
H518     H      0.638700000000     0.180100000000     0.341400000000     0          
O519     O      0.964100000000     0.826610000000     0.374400000000     0          
C520     C      0.013650000000     0.779250000000     0.364340000000     0          
H521     H      0.019900000000     0.801600000000     0.366200000000     0          
C522     C      0.037350000000     0.755020000000     0.358470000000     0          
H523     H      0.059600000000     0.761000000000     0.355800000000     0          
C524     C      0.132330000000     0.657790000000     0.341360000000     0          
H525     H      0.138700000000     0.680100000000     0.341400000000     0          
O526     O      0.964100000000     0.326610000000     0.874400000000     0          
C527     C      0.013650000000     0.279250000000     0.864340000000     0          
H528     H      0.019900000000     0.301600000000     0.866200000000     0          
C529     C      0.037350000000     0.255020000000     0.858470000000     0          
H530     H      0.059600000000     0.261000000000     0.855800000000     0          
C531     C      0.132330000000     0.157790000000     0.841360000000     0          
H532     H      0.138700000000     0.180100000000     0.841400000000     0          
O533     O      0.785900000000     0.326610000000     0.875600000000     0          
N534     N      0.602700000000     0.190200000000     0.904900000000     0          
C535     C      0.736350000000     0.279250000000     0.885660000000     0          
H536     H      0.730100000000     0.301600000000     0.883800000000     0          
C537     C      0.712650000000     0.255020000000     0.891530000000     0          
H538     H      0.690400000000     0.261000000000     0.894200000000     0          
C539     C      0.617670000000     0.157790000000     0.908640000000     0          
O540     O      0.785900000000     0.826610000000     0.375600000000     0          
N541     N      0.602700000000     0.690200000000     0.404900000000     0          
C542     C      0.736350000000     0.779250000000     0.385660000000     0          
H543     H      0.730100000000     0.801600000000     0.383800000000     0          
C544     C      0.712650000000     0.755020000000     0.391530000000     0          
H545     H      0.690400000000     0.761000000000     0.394200000000     0          
C546     C      0.617670000000     0.657790000000     0.408640000000     0          
O547     O      0.285900000000     0.326610000000     0.375600000000     0          
C548     C      0.236350000000     0.279250000000     0.385660000000     0          
H549     H      0.230100000000     0.301600000000     0.383800000000     0          
C550     C      0.212650000000     0.255020000000     0.391530000000     0          
H551     H      0.190400000000     0.261000000000     0.394200000000     0          
C552     C      0.117670000000     0.157790000000     0.408640000000     0          
H553     H      0.111300000000     0.180100000000     0.408600000000     0          
O554     O      0.285900000000     0.826610000000     0.875600000000     0          
N555     N      0.102700000000     0.690200000000     0.904900000000     0          
C556     C      0.236350000000     0.779250000000     0.885660000000     0          
H557     H      0.230100000000     0.801600000000     0.883800000000     0          
C558     C      0.212650000000     0.755020000000     0.891530000000     0          
H559     H      0.190400000000     0.761000000000     0.894200000000     0          
C560     C      0.117670000000     0.657790000000     0.908640000000     0          
O561     O      0.923390000000     0.375600000000     0.964100000000     0          
N562     N      0.059800000000     0.404900000000     0.147300000000     0          
C563     C      0.970750000000     0.385660000000     0.013650000000     0          
H564     H      0.948400000000     0.383800000000     0.019900000000     0          
C565     C      0.994980000000     0.391530000000     0.037350000000     0          
H566     H      0.989000000000     0.394200000000     0.059600000000     0          
C567     C      0.092210000000     0.408640000000     0.132330000000     0          
O568     O      0.923390000000     0.875600000000     0.464100000000     0          
N569     N      0.059800000000     0.904900000000     0.647300000000     0          
C570     C      0.970750000000     0.885660000000     0.513650000000     0          
H571     H      0.948400000000     0.883800000000     0.519900000000     0          
C572     C      0.994980000000     0.891530000000     0.537350000000     0          
H573     H      0.989000000000     0.894200000000     0.559600000000     0          
C574     C      0.092210000000     0.908640000000     0.632330000000     0          
O575     O      0.423390000000     0.375600000000     0.464100000000     0          
N576     N      0.559800000000     0.404900000000     0.647300000000     0          
C577     C      0.470750000000     0.385660000000     0.513650000000     0          
H578     H      0.448400000000     0.383800000000     0.519900000000     0          
C579     C      0.494980000000     0.391530000000     0.537350000000     0          
H580     H      0.489000000000     0.394200000000     0.559600000000     0          
C581     C      0.592210000000     0.408640000000     0.632330000000     0          
O582     O      0.423390000000     0.875600000000     0.964100000000     0          
N583     N      0.559800000000     0.904900000000     0.147300000000     0          
C584     C      0.470750000000     0.885660000000     0.013650000000     0          
H585     H      0.448400000000     0.883800000000     0.019900000000     0          
C586     C      0.494980000000     0.891530000000     0.037350000000     0          
H587     H      0.489000000000     0.894200000000     0.059600000000     0          
C588     C      0.592210000000     0.908640000000     0.132330000000     0          
O589     O      0.423390000000     0.374400000000     0.285900000000     0          
C590     C      0.470750000000     0.364340000000     0.236350000000     0          
H591     H      0.448400000000     0.366200000000     0.230100000000     0          
C592     C      0.494980000000     0.358470000000     0.212650000000     0          
H593     H      0.489000000000     0.355800000000     0.190400000000     0          
C594     C      0.592210000000     0.341360000000     0.117670000000     0          
H595     H      0.569900000000     0.341400000000     0.111300000000     0          
O596     O      0.423390000000     0.874400000000     0.785900000000     0          
C597     C      0.470750000000     0.864340000000     0.736350000000     0          
H598     H      0.448400000000     0.866200000000     0.730100000000     0          
C599     C      0.494980000000     0.858470000000     0.712650000000     0          
H600     H      0.489000000000     0.855800000000     0.690400000000     0          
C601     C      0.592210000000     0.841360000000     0.617670000000     0          
H602     H      0.569900000000     0.841400000000     0.611300000000     0          
O603     O      0.923390000000     0.374400000000     0.785900000000     0          
N604     N      0.059800000000     0.345100000000     0.602700000000     0          
C605     C      0.970750000000     0.364340000000     0.736350000000     0          
H606     H      0.948400000000     0.366200000000     0.730100000000     0          
C607     C      0.994980000000     0.358470000000     0.712650000000     0          
H608     H      0.989000000000     0.355800000000     0.690400000000     0          
C609     C      0.092210000000     0.341360000000     0.617670000000     0          
O610     O      0.923390000000     0.874400000000     0.285900000000     0          
N611     N      0.059800000000     0.845100000000     0.102700000000     0          
C612     C      0.970750000000     0.864340000000     0.236350000000     0          
H613     H      0.948400000000     0.866200000000     0.230100000000     0          
C614     C      0.994980000000     0.858470000000     0.212650000000     0          
H615     H      0.989000000000     0.855800000000     0.190400000000     0          
C616     C      0.092210000000     0.841360000000     0.117670000000     0          
O617     O      0.326610000000     0.875600000000     0.785900000000     0          
C618     C      0.279250000000     0.885660000000     0.736350000000     0          
H619     H      0.301600000000     0.883800000000     0.730100000000     0          
C620     C      0.255020000000     0.891530000000     0.712650000000     0          
H621     H      0.261000000000     0.894200000000     0.690400000000     0          
C622     C      0.157790000000     0.908640000000     0.617670000000     0          
H623     H      0.180100000000     0.908600000000     0.611300000000     0          
O624     O      0.326610000000     0.375600000000     0.285900000000     0          
C625     C      0.279250000000     0.385660000000     0.236350000000     0          
H626     H      0.301600000000     0.383800000000     0.230100000000     0          
C627     C      0.255020000000     0.391530000000     0.212650000000     0          
H628     H      0.261000000000     0.394200000000     0.190400000000     0          
C629     C      0.157790000000     0.408640000000     0.117670000000     0          
H630     H      0.180100000000     0.408600000000     0.111300000000     0          
O631     O      0.826610000000     0.875600000000     0.285900000000     0          
C632     C      0.779250000000     0.885660000000     0.236350000000     0          
H633     H      0.801600000000     0.883800000000     0.230100000000     0          
C634     C      0.755020000000     0.891530000000     0.212650000000     0          
H635     H      0.761000000000     0.894200000000     0.190400000000     0          
C636     C      0.657790000000     0.908640000000     0.117670000000     0          
H637     H      0.680100000000     0.908600000000     0.111300000000     0          
O638     O      0.826610000000     0.375600000000     0.785900000000     0          
C639     C      0.779250000000     0.385660000000     0.736350000000     0          
H640     H      0.801600000000     0.383800000000     0.730100000000     0          
C641     C      0.755020000000     0.391530000000     0.712650000000     0          
H642     H      0.761000000000     0.394200000000     0.690400000000     0          
C643     C      0.657790000000     0.408640000000     0.617670000000     0          
H644     H      0.680100000000     0.408600000000     0.611300000000     0          
O645     O      0.826610000000     0.874400000000     0.464100000000     0          
N646     N      0.690200000000     0.845100000000     0.647300000000     0          
C647     C      0.779250000000     0.864340000000     0.513650000000     0          
H648     H      0.801600000000     0.866200000000     0.519900000000     0          
C649     C      0.755020000000     0.858470000000     0.537350000000     0          
H650     H      0.761000000000     0.855800000000     0.559600000000     0          
C651     C      0.657790000000     0.841360000000     0.632330000000     0          
O652     O      0.826610000000     0.374400000000     0.964100000000     0          
N653     N      0.690200000000     0.345100000000     0.147300000000     0          
C654     C      0.779250000000     0.364340000000     0.013650000000     0          
H655     H      0.801600000000     0.366200000000     0.019900000000     0          
C656     C      0.755020000000     0.358470000000     0.037350000000     0          
H657     H      0.761000000000     0.355800000000     0.059600000000     0          
C658     C      0.657790000000     0.341360000000     0.132330000000     0          
O659     O      0.326610000000     0.874400000000     0.964100000000     0          
C660     C      0.279250000000     0.864340000000     0.013650000000     0          
H661     H      0.301600000000     0.866200000000     0.019900000000     0          
C662     C      0.255020000000     0.858470000000     0.037350000000     0          
H663     H      0.261000000000     0.855800000000     0.059600000000     0          
C664     C      0.157790000000     0.841360000000     0.132330000000     0          
H665     H      0.180100000000     0.841400000000     0.138700000000     0          
O666     O      0.326610000000     0.374400000000     0.464100000000     0          
C667     C      0.279250000000     0.364340000000     0.513650000000     0          
H668     H      0.301600000000     0.366200000000     0.519900000000     0          
C669     C      0.255020000000     0.358470000000     0.537350000000     0          
H670     H      0.261000000000     0.355800000000     0.559600000000     0          
C671     C      0.157790000000     0.341360000000     0.632330000000     0          
H672     H      0.180100000000     0.341400000000     0.638700000000     0          
O673     O      0.464100000000     0.874400000000     0.826610000000     0          
N674     N      0.647300000000     0.845100000000     0.690200000000     0          
C675     C      0.513650000000     0.864340000000     0.779250000000     0          
H676     H      0.519900000000     0.866200000000     0.801600000000     0          
C677     C      0.537350000000     0.858470000000     0.755020000000     0          
H678     H      0.559600000000     0.855800000000     0.761000000000     0          
C679     C      0.632330000000     0.841360000000     0.657790000000     0          
O680     O      0.464100000000     0.374400000000     0.326610000000     0          
N681     N      0.647300000000     0.345100000000     0.190200000000     0          
C682     C      0.513650000000     0.364340000000     0.279250000000     0          
H683     H      0.519900000000     0.366200000000     0.301600000000     0          
C684     C      0.537350000000     0.358470000000     0.255020000000     0          
H685     H      0.559600000000     0.355800000000     0.261000000000     0          
C686     C      0.632330000000     0.341360000000     0.157790000000     0          
O687     O      0.964100000000     0.874400000000     0.326610000000     0          
C688     C      0.013650000000     0.864340000000     0.279250000000     0          
H689     H      0.019900000000     0.866200000000     0.301600000000     0          
C690     C      0.037350000000     0.858470000000     0.255020000000     0          
H691     H      0.059600000000     0.855800000000     0.261000000000     0          
C692     C      0.132330000000     0.841360000000     0.157790000000     0          
H693     H      0.138700000000     0.841400000000     0.180100000000     0          
O694     O      0.964100000000     0.374400000000     0.826610000000     0          
C695     C      0.013650000000     0.364340000000     0.779250000000     0          
H696     H      0.019900000000     0.366200000000     0.801600000000     0          
C697     C      0.037350000000     0.358470000000     0.755020000000     0          
H698     H      0.059600000000     0.355800000000     0.761000000000     0          
C699     C      0.132330000000     0.341360000000     0.657790000000     0          
H700     H      0.138700000000     0.341400000000     0.680100000000     0          
O701     O      0.785900000000     0.875600000000     0.326610000000     0          
N702     N      0.602700000000     0.904900000000     0.190200000000     0          
C703     C      0.736350000000     0.885660000000     0.279250000000     0          
H704     H      0.730100000000     0.883800000000     0.301600000000     0          
C705     C      0.712650000000     0.891530000000     0.255020000000     0          
H706     H      0.690400000000     0.894200000000     0.261000000000     0          
C707     C      0.617670000000     0.908640000000     0.157790000000     0          
O708     O      0.785900000000     0.375600000000     0.826610000000     0          
N709     N      0.602700000000     0.404900000000     0.690200000000     0          
C710     C      0.736350000000     0.385660000000     0.779250000000     0          
H711     H      0.730100000000     0.383800000000     0.801600000000     0          
C712     C      0.712650000000     0.391530000000     0.755020000000     0          
H713     H      0.690400000000     0.394200000000     0.761000000000     0          
C714     C      0.617670000000     0.408640000000     0.657790000000     0          
O715     O      0.285900000000     0.875600000000     0.826610000000     0          
N716     N      0.102700000000     0.904900000000     0.690200000000     0          
C717     C      0.236350000000     0.885660000000     0.779250000000     0          
H718     H      0.230100000000     0.883800000000     0.801600000000     0          
C719     C      0.212650000000     0.891530000000     0.755020000000     0          
H720     H      0.190400000000     0.894200000000     0.761000000000     0          
C721     C      0.117670000000     0.908640000000     0.657790000000     0          
O722     O      0.285900000000     0.375600000000     0.326610000000     0          
N723     N      0.102700000000     0.404900000000     0.190200000000     0          
C724     C      0.236350000000     0.385660000000     0.279250000000     0          
H725     H      0.230100000000     0.383800000000     0.301600000000     0          
C726     C      0.212650000000     0.391530000000     0.255020000000     0          
H727     H      0.190400000000     0.394200000000     0.261000000000     0          
C728     C      0.117670000000     0.408640000000     0.157790000000     0          
O729     O      0.285900000000     0.374400000000     0.423390000000     0          
N730     N      0.102700000000     0.345100000000     0.559800000000     0          
C731     C      0.236350000000     0.364340000000     0.470750000000     0          
H732     H      0.230100000000     0.366200000000     0.448400000000     0          
C733     C      0.212650000000     0.358470000000     0.494980000000     0          
H734     H      0.190400000000     0.355800000000     0.489000000000     0          
C735     C      0.117670000000     0.341360000000     0.592210000000     0          
O736     O      0.285900000000     0.874400000000     0.923390000000     0          
N737     N      0.102700000000     0.845100000000     0.059800000000     0          
C738     C      0.236350000000     0.864340000000     0.970750000000     0          
H739     H      0.230100000000     0.866200000000     0.948400000000     0          
C740     C      0.212650000000     0.858470000000     0.994980000000     0          
H741     H      0.190400000000     0.855800000000     0.989000000000     0          
C742     C      0.117670000000     0.841360000000     0.092210000000     0          
O743     O      0.785900000000     0.374400000000     0.923390000000     0          
C744     C      0.736350000000     0.364340000000     0.970750000000     0          
H745     H      0.730100000000     0.366200000000     0.948400000000     0          
C746     C      0.712650000000     0.358470000000     0.994980000000     0          
H747     H      0.690400000000     0.355800000000     0.989000000000     0          
C748     C      0.617670000000     0.341360000000     0.092210000000     0          
H749     H      0.611300000000     0.341400000000     0.069900000000     0          
O750     O      0.785900000000     0.874400000000     0.423390000000     0          
C751     C      0.736350000000     0.864340000000     0.470750000000     0          
H752     H      0.730100000000     0.866200000000     0.448400000000     0          
C753     C      0.712650000000     0.858470000000     0.494980000000     0          
H754     H      0.690400000000     0.855800000000     0.489000000000     0          
C755     C      0.617670000000     0.841360000000     0.592210000000     0          
H756     H      0.611300000000     0.841400000000     0.569900000000     0          
O757     O      0.964100000000     0.375600000000     0.923390000000     0          
C758     C      0.013650000000     0.385660000000     0.970750000000     0          
H759     H      0.019900000000     0.383800000000     0.948400000000     0          
C760     C      0.037350000000     0.391530000000     0.994980000000     0          
H761     H      0.059600000000     0.394200000000     0.989000000000     0          
C762     C      0.132330000000     0.408640000000     0.092210000000     0          
H763     H      0.138700000000     0.408600000000     0.069900000000     0          
O764     O      0.964100000000     0.875600000000     0.423390000000     0          
C765     C      0.013650000000     0.885660000000     0.470750000000     0          
H766     H      0.019900000000     0.883800000000     0.448400000000     0          
C767     C      0.037350000000     0.891530000000     0.494980000000     0          
H768     H      0.059600000000     0.894200000000     0.489000000000     0          
C769     C      0.132330000000     0.908640000000     0.592210000000     0          
H770     H      0.138700000000     0.908600000000     0.569900000000     0          
O771     O      0.464100000000     0.375600000000     0.423390000000     0          
C772     C      0.513650000000     0.385660000000     0.470750000000     0          
H773     H      0.519900000000     0.383800000000     0.448400000000     0          
C774     C      0.537350000000     0.391530000000     0.494980000000     0          
H775     H      0.559600000000     0.394200000000     0.489000000000     0          
C776     C      0.632330000000     0.408640000000     0.592210000000     0          
H777     H      0.638700000000     0.408600000000     0.569900000000     0          
O778     O      0.464100000000     0.875600000000     0.923390000000     0          
C779     C      0.513650000000     0.885660000000     0.970750000000     0          
H780     H      0.519900000000     0.883800000000     0.948400000000     0          
C781     C      0.537350000000     0.891530000000     0.994980000000     0          
H782     H      0.559600000000     0.894200000000     0.989000000000     0          
C783     C      0.632330000000     0.908640000000     0.092210000000     0          
H784     H      0.638700000000     0.908600000000     0.069900000000     0          
O785     O      0.826610000000     0.464100000000     0.874400000000     0          
C786     C      0.779250000000     0.513650000000     0.864340000000     0          
H787     H      0.801600000000     0.519900000000     0.866200000000     0          
C788     C      0.755020000000     0.537350000000     0.858470000000     0          
H789     H      0.761000000000     0.559600000000     0.855800000000     0          
C790     C      0.657790000000     0.632330000000     0.841360000000     0          
H791     H      0.680100000000     0.638700000000     0.841400000000     0          
O792     O      0.826610000000     0.964100000000     0.374400000000     0          
C793     C      0.779250000000     0.013650000000     0.364340000000     0          
H794     H      0.801600000000     0.019900000000     0.366200000000     0          
C795     C      0.755020000000     0.037350000000     0.358470000000     0          
H796     H      0.761000000000     0.059600000000     0.355800000000     0          
C797     C      0.657790000000     0.132330000000     0.341360000000     0          
H798     H      0.680100000000     0.138700000000     0.341400000000     0          
O799     O      0.326610000000     0.464100000000     0.374400000000     0          
C800     C      0.279250000000     0.513650000000     0.364340000000     0          
H801     H      0.301600000000     0.519900000000     0.366200000000     0          
C802     C      0.255020000000     0.537350000000     0.358470000000     0          
H803     H      0.261000000000     0.559600000000     0.355800000000     0          
C804     C      0.157790000000     0.632330000000     0.341360000000     0          
H805     H      0.180100000000     0.638700000000     0.341400000000     0          
O806     O      0.326610000000     0.964100000000     0.874400000000     0          
C807     C      0.279250000000     0.013650000000     0.864340000000     0          
H808     H      0.301600000000     0.019900000000     0.866200000000     0          
C809     C      0.255020000000     0.037350000000     0.858470000000     0          
H810     H      0.261000000000     0.059600000000     0.855800000000     0          
C811     C      0.157790000000     0.132330000000     0.841360000000     0          
H812     H      0.180100000000     0.138700000000     0.841400000000     0          
O813     O      0.326610000000     0.785900000000     0.875600000000     0          
C814     C      0.279250000000     0.736350000000     0.885660000000     0          
H815     H      0.301600000000     0.730100000000     0.883800000000     0          
C816     C      0.255020000000     0.712650000000     0.891530000000     0          
H817     H      0.261000000000     0.690400000000     0.894200000000     0          
C818     C      0.157790000000     0.617670000000     0.908640000000     0          
H819     H      0.180100000000     0.611300000000     0.908600000000     0          
O820     O      0.326610000000     0.285900000000     0.375600000000     0          
N821     N      0.190200000000     0.102700000000     0.404900000000     0          
C822     C      0.279250000000     0.236350000000     0.385660000000     0          
H823     H      0.301600000000     0.230100000000     0.383800000000     0          
C824     C      0.255020000000     0.212650000000     0.391530000000     0          
H825     H      0.261000000000     0.190400000000     0.394200000000     0          
C826     C      0.157790000000     0.117670000000     0.408640000000     0          
O827     O      0.826610000000     0.785900000000     0.375600000000     0          
C828     C      0.779250000000     0.736350000000     0.385660000000     0          
H829     H      0.801600000000     0.730100000000     0.383800000000     0          
C830     C      0.755020000000     0.712650000000     0.391530000000     0          
H831     H      0.761000000000     0.690400000000     0.394200000000     0          
C832     C      0.657790000000     0.617670000000     0.408640000000     0          
H833     H      0.680100000000     0.611300000000     0.408600000000     0          
O834     O      0.826610000000     0.285900000000     0.875600000000     0          
C835     C      0.779250000000     0.236350000000     0.885660000000     0          
H836     H      0.801600000000     0.230100000000     0.883800000000     0          
C837     C      0.755020000000     0.212650000000     0.891530000000     0          
H838     H      0.761000000000     0.190400000000     0.894200000000     0          
C839     C      0.657790000000     0.117670000000     0.908640000000     0          
H840     H      0.680100000000     0.111300000000     0.908600000000     0          
O841     O      0.423390000000     0.285900000000     0.374400000000     0          
N842     N      0.559800000000     0.102700000000     0.345100000000     0          
C843     C      0.470750000000     0.236350000000     0.364340000000     0          
H844     H      0.448400000000     0.230100000000     0.366200000000     0          
C845     C      0.494980000000     0.212650000000     0.358470000000     0          
H846     H      0.489000000000     0.190400000000     0.355800000000     0          
C847     C      0.592210000000     0.117670000000     0.341360000000     0          
O848     O      0.423390000000     0.785900000000     0.874400000000     0          
N849     N      0.559800000000     0.602700000000     0.845100000000     0          
C850     C      0.470750000000     0.736350000000     0.864340000000     0          
H851     H      0.448400000000     0.730100000000     0.866200000000     0          
C852     C      0.494980000000     0.712650000000     0.858470000000     0          
H853     H      0.489000000000     0.690400000000     0.855800000000     0          
C854     C      0.592210000000     0.617670000000     0.841360000000     0          
O855     O      0.923390000000     0.285900000000     0.874400000000     0          
N856     N      0.059800000000     0.102700000000     0.845100000000     0          
C857     C      0.970750000000     0.236350000000     0.864340000000     0          
H858     H      0.948400000000     0.230100000000     0.866200000000     0          
C859     C      0.994980000000     0.212650000000     0.858470000000     0          
H860     H      0.989000000000     0.190400000000     0.855800000000     0          
C861     C      0.092210000000     0.117670000000     0.841360000000     0          
O862     O      0.923390000000     0.785900000000     0.374400000000     0          
N863     N      0.059800000000     0.602700000000     0.345100000000     0          
C864     C      0.970750000000     0.736350000000     0.364340000000     0          
H865     H      0.948400000000     0.730100000000     0.366200000000     0          
C866     C      0.994980000000     0.712650000000     0.358470000000     0          
H867     H      0.989000000000     0.690400000000     0.355800000000     0          
C868     C      0.092210000000     0.617670000000     0.341360000000     0          
O869     O      0.923390000000     0.964100000000     0.375600000000     0          
C870     C      0.970750000000     0.013650000000     0.385660000000     0          
H871     H      0.948400000000     0.019900000000     0.383800000000     0          
C872     C      0.994980000000     0.037350000000     0.391530000000     0          
H873     H      0.989000000000     0.059600000000     0.394200000000     0          
C874     C      0.092210000000     0.132330000000     0.408640000000     0          
H875     H      0.069900000000     0.138700000000     0.408600000000     0          
O876     O      0.923390000000     0.464100000000     0.875600000000     0          
N877     N      0.059800000000     0.647300000000     0.904900000000     0          
C878     C      0.970750000000     0.513650000000     0.885660000000     0          
H879     H      0.948400000000     0.519900000000     0.883800000000     0          
C880     C      0.994980000000     0.537350000000     0.891530000000     0          
H881     H      0.989000000000     0.559600000000     0.894200000000     0          
C882     C      0.092210000000     0.632330000000     0.908640000000     0          
O883     O      0.423390000000     0.964100000000     0.875600000000     0          
N884     N      0.559800000000     0.147300000000     0.904900000000     0          
C885     C      0.470750000000     0.013650000000     0.885660000000     0          
H886     H      0.448400000000     0.019900000000     0.883800000000     0          
C887     C      0.494980000000     0.037350000000     0.891530000000     0          
H888     H      0.489000000000     0.059600000000     0.894200000000     0          
C889     C      0.592210000000     0.132330000000     0.908640000000     0          
O890     O      0.423390000000     0.464100000000     0.375600000000     0          
N891     N      0.559800000000     0.647300000000     0.404900000000     0          
C892     C      0.470750000000     0.513650000000     0.385660000000     0          
H893     H      0.448400000000     0.519900000000     0.383800000000     0          
C894     C      0.494980000000     0.537350000000     0.391530000000     0          
H895     H      0.489000000000     0.559600000000     0.394200000000     0          
C896     C      0.592210000000     0.632330000000     0.408640000000     0          
O897     O      0.874400000000     0.826610000000     0.464100000000     0          
C898     C      0.864340000000     0.779250000000     0.513650000000     0          
H899     H      0.866200000000     0.801600000000     0.519900000000     0          
C900     C      0.858470000000     0.755020000000     0.537350000000     0          
H901     H      0.855800000000     0.761000000000     0.559600000000     0          
C902     C      0.841360000000     0.657790000000     0.632330000000     0          
H903     H      0.841400000000     0.680100000000     0.638700000000     0          
O904     O      0.874400000000     0.326610000000     0.964100000000     0          
C905     C      0.864340000000     0.279250000000     0.013650000000     0          
H906     H      0.866200000000     0.301600000000     0.019900000000     0          
C907     C      0.858470000000     0.255020000000     0.037350000000     0          
H908     H      0.855800000000     0.261000000000     0.059600000000     0          
C909     C      0.841360000000     0.157790000000     0.132330000000     0          
H910     H      0.841400000000     0.180100000000     0.138700000000     0          
O911     O      0.374400000000     0.826610000000     0.964100000000     0          
N912     N      0.345100000000     0.690200000000     0.147300000000     0          
C913     C      0.364340000000     0.779250000000     0.013650000000     0          
H914     H      0.366200000000     0.801600000000     0.019900000000     0          
C915     C      0.358470000000     0.755020000000     0.037350000000     0          
H916     H      0.355800000000     0.761000000000     0.059600000000     0          
C917     C      0.341360000000     0.657790000000     0.132330000000     0          
O918     O      0.374400000000     0.326610000000     0.464100000000     0          
C919     C      0.364340000000     0.279250000000     0.513650000000     0          
H920     H      0.366200000000     0.301600000000     0.519900000000     0          
C921     C      0.358470000000     0.255020000000     0.537350000000     0          
H922     H      0.355800000000     0.261000000000     0.559600000000     0          
C923     C      0.341360000000     0.157790000000     0.632330000000     0          
H924     H      0.341400000000     0.180100000000     0.638700000000     0          
O925     O      0.875600000000     0.326610000000     0.785900000000     0          
N926     N      0.904900000000     0.190200000000     0.602700000000     0          
C927     C      0.885660000000     0.279250000000     0.736350000000     0          
H928     H      0.883800000000     0.301600000000     0.730100000000     0          
C929     C      0.891530000000     0.255020000000     0.712650000000     0          
H930     H      0.894200000000     0.261000000000     0.690400000000     0          
C931     C      0.908640000000     0.157790000000     0.617670000000     0          
O932     O      0.875600000000     0.826610000000     0.285900000000     0          
N933     N      0.904900000000     0.690200000000     0.102700000000     0          
C934     C      0.885660000000     0.779250000000     0.236350000000     0          
H935     H      0.883800000000     0.801600000000     0.230100000000     0          
C936     C      0.891530000000     0.755020000000     0.212650000000     0          
H937     H      0.894200000000     0.761000000000     0.190400000000     0          
C938     C      0.908640000000     0.657790000000     0.117670000000     0          
O939     O      0.375600000000     0.326610000000     0.285900000000     0          
C940     C      0.385660000000     0.279250000000     0.236350000000     0          
H941     H      0.383800000000     0.301600000000     0.230100000000     0          
C942     C      0.391530000000     0.255020000000     0.212650000000     0          
H943     H      0.394200000000     0.261000000000     0.190400000000     0          
C944     C      0.408640000000     0.157790000000     0.117670000000     0          
H945     H      0.408600000000     0.180100000000     0.111300000000     0          
O946     O      0.375600000000     0.826610000000     0.785900000000     0          
N947     N      0.404900000000     0.690200000000     0.602700000000     0          
C948     C      0.385660000000     0.779250000000     0.736350000000     0          
H949     H      0.383800000000     0.801600000000     0.730100000000     0          
C950     C      0.391530000000     0.755020000000     0.712650000000     0          
H951     H      0.394200000000     0.761000000000     0.690400000000     0          
C952     C      0.408640000000     0.657790000000     0.617670000000     0          
O953     O      0.374400000000     0.423390000000     0.285900000000     0          
C954     C      0.364340000000     0.470750000000     0.236350000000     0          
H955     H      0.366200000000     0.448400000000     0.230100000000     0          
C956     C      0.358470000000     0.494980000000     0.212650000000     0          
H957     H      0.355800000000     0.489000000000     0.190400000000     0          
C958     C      0.341360000000     0.592210000000     0.117670000000     0          
H959     H      0.341400000000     0.569900000000     0.111300000000     0          
O960     O      0.374400000000     0.923390000000     0.785900000000     0          
N961     N      0.345100000000     0.059800000000     0.602700000000     0          
C962     C      0.364340000000     0.970750000000     0.736350000000     0          
H963     H      0.366200000000     0.948400000000     0.730100000000     0          
C964     C      0.358470000000     0.994980000000     0.712650000000     0          
H965     H      0.355800000000     0.989000000000     0.690400000000     0          
C966     C      0.341360000000     0.092210000000     0.617670000000     0          
O967     O      0.874400000000     0.423390000000     0.785900000000     0          
N968     N      0.845100000000     0.559800000000     0.602700000000     0          
C969     C      0.864340000000     0.470750000000     0.736350000000     0          
H970     H      0.866200000000     0.448400000000     0.730100000000     0          
C971     C      0.858470000000     0.494980000000     0.712650000000     0          
H972     H      0.855800000000     0.489000000000     0.690400000000     0          
C973     C      0.841360000000     0.592210000000     0.617670000000     0          
O974     O      0.874400000000     0.923390000000     0.285900000000     0          
N975     N      0.845100000000     0.059800000000     0.102700000000     0          
C976     C      0.864340000000     0.970750000000     0.236350000000     0          
H977     H      0.866200000000     0.948400000000     0.230100000000     0          
C978     C      0.858470000000     0.994980000000     0.212650000000     0          
H979     H      0.855800000000     0.989000000000     0.190400000000     0          
C980     C      0.841360000000     0.092210000000     0.117670000000     0          
O981     O      0.375600000000     0.923390000000     0.964100000000     0          
N982     N      0.404900000000     0.059800000000     0.147300000000     0          
C983     C      0.385660000000     0.970750000000     0.013650000000     0          
H984     H      0.383800000000     0.948400000000     0.019900000000     0          
C985     C      0.391530000000     0.994980000000     0.037350000000     0          
H986     H      0.394200000000     0.989000000000     0.059600000000     0          
C987     C      0.408640000000     0.092210000000     0.132330000000     0          
O988     O      0.375600000000     0.423390000000     0.464100000000     0          
C989     C      0.385660000000     0.470750000000     0.513650000000     0          
H990     H      0.383800000000     0.448400000000     0.519900000000     0          
C991     C      0.391530000000     0.494980000000     0.537350000000     0          
H992     H      0.394200000000     0.489000000000     0.559600000000     0          
C993     C      0.408640000000     0.592210000000     0.632330000000     0          
H994     H      0.408600000000     0.569900000000     0.638700000000     0          
O995     O      0.875600000000     0.923390000000     0.464100000000     0          
C996     C      0.885660000000     0.970750000000     0.513650000000     0          
H997     H      0.883800000000     0.948400000000     0.519900000000     0          
C998     C      0.891530000000     0.994980000000     0.537350000000     0          
H999     H      0.894200000000     0.989000000000     0.559600000000     0          
C1000    C      0.908640000000     0.092210000000     0.632330000000     0          
H1001    H      0.908600000000     0.069900000000     0.638700000000     0          
O1002    O      0.875600000000     0.423390000000     0.964100000000     0          
C1003    C      0.885660000000     0.470750000000     0.013650000000     0          
H1004    H      0.883800000000     0.448400000000     0.019900000000     0          
C1005    C      0.891530000000     0.494980000000     0.037350000000     0          
H1006    H      0.894200000000     0.489000000000     0.059600000000     0          
C1007    C      0.908640000000     0.592210000000     0.132330000000     0          
H1008    H      0.908600000000     0.569900000000     0.138700000000     0          
O1009    O      0.124400000000     0.214100000000     0.673390000000     0          
N1010    N      0.095100000000     0.397300000000     0.809800000000     0          
C1011    C      0.114340000000     0.263650000000     0.720750000000     0          
H1012    H      0.116200000000     0.269900000000     0.698400000000     0          
C1013    C      0.108470000000     0.287350000000     0.744980000000     0          
H1014    H      0.105800000000     0.309600000000     0.739000000000     0          
C1015    C      0.091360000000     0.382330000000     0.842210000000     0          
O1016    O      0.124400000000     0.714100000000     0.173390000000     0          
C1017    C      0.114340000000     0.763650000000     0.220750000000     0          
H1018    H      0.116200000000     0.769900000000     0.198400000000     0          
C1019    C      0.108470000000     0.787350000000     0.244980000000     0          
H1020    H      0.105800000000     0.809600000000     0.239000000000     0          
C1021    C      0.091360000000     0.882330000000     0.342210000000     0          
H1022    H      0.091400000000     0.888700000000     0.319900000000     0          
O1023    O      0.624400000000     0.214100000000     0.173390000000     0          
C1024    C      0.614340000000     0.263650000000     0.220750000000     0          
H1025    H      0.616200000000     0.269900000000     0.198400000000     0          
C1026    C      0.608470000000     0.287350000000     0.244980000000     0          
H1027    H      0.605800000000     0.309600000000     0.239000000000     0          
C1028    C      0.591360000000     0.382330000000     0.342210000000     0          
H1029    H      0.591400000000     0.388700000000     0.319900000000     0          
O1030    O      0.624400000000     0.714100000000     0.673390000000     0          
C1031    C      0.614340000000     0.763650000000     0.720750000000     0          
H1032    H      0.616200000000     0.769900000000     0.698400000000     0          
C1033    C      0.608470000000     0.787350000000     0.744980000000     0          
H1034    H      0.605800000000     0.809600000000     0.739000000000     0          
C1035    C      0.591360000000     0.882330000000     0.842210000000     0          
H1036    H      0.591400000000     0.888700000000     0.819900000000     0          
O1037    O      0.125600000000     0.535900000000     0.173390000000     0          
C1038    C      0.135660000000     0.486350000000     0.220750000000     0          
H1039    H      0.133800000000     0.480100000000     0.198400000000     0          
C1040    C      0.141530000000     0.462650000000     0.244980000000     0          
H1041    H      0.144200000000     0.440400000000     0.239000000000     0          
C1042    C      0.158640000000     0.367670000000     0.342210000000     0          
H1043    H      0.158600000000     0.361300000000     0.319900000000     0          
O1044    O      0.125600000000     0.035900000000     0.673390000000     0          
C1045    C      0.135660000000     0.986350000000     0.720750000000     0          
H1046    H      0.133800000000     0.980100000000     0.698400000000     0          
C1047    C      0.141530000000     0.962650000000     0.744980000000     0          
H1048    H      0.144200000000     0.940400000000     0.739000000000     0          
C1049    C      0.158640000000     0.867670000000     0.842210000000     0          
H1050    H      0.158600000000     0.861300000000     0.819900000000     0          
O1051    O      0.625600000000     0.535900000000     0.673390000000     0          
N1052    N      0.654900000000     0.352700000000     0.809800000000     0          
C1053    C      0.635660000000     0.486350000000     0.720750000000     0          
H1054    H      0.633800000000     0.480100000000     0.698400000000     0          
C1055    C      0.641530000000     0.462650000000     0.744980000000     0          
H1056    H      0.644200000000     0.440400000000     0.739000000000     0          
C1057    C      0.658640000000     0.367670000000     0.842210000000     0          
O1058    O      0.625600000000     0.035900000000     0.173390000000     0          
C1059    C      0.635660000000     0.986350000000     0.220750000000     0          
H1060    H      0.633800000000     0.980100000000     0.198400000000     0          
C1061    C      0.641530000000     0.962650000000     0.244980000000     0          
H1062    H      0.644200000000     0.940400000000     0.239000000000     0          
C1063    C      0.658640000000     0.867670000000     0.342210000000     0          
H1064    H      0.658600000000     0.861300000000     0.319900000000     0          
O1065    O      0.624400000000     0.035900000000     0.076610000000     0          
N1066    N      0.595100000000     0.852700000000     0.940200000000     0          
C1067    C      0.614340000000     0.986350000000     0.029250000000     0          
H1068    H      0.616200000000     0.980100000000     0.051600000000     0          
C1069    C      0.608470000000     0.962650000000     0.005020000000     0          
H1070    H      0.605800000000     0.940400000000     0.011000000000     0          
C1071    C      0.591360000000     0.867670000000     0.907790000000     0          
O1072    O      0.624400000000     0.535900000000     0.576610000000     0          
N1073    N      0.595100000000     0.352700000000     0.440200000000     0          
C1074    C      0.614340000000     0.486350000000     0.529250000000     0          
H1075    H      0.616200000000     0.480100000000     0.551600000000     0          
C1076    C      0.608470000000     0.462650000000     0.505020000000     0          
H1077    H      0.605800000000     0.440400000000     0.511000000000     0          
C1078    C      0.591360000000     0.367670000000     0.407790000000     0          
O1079    O      0.124400000000     0.035900000000     0.576610000000     0          
N1080    N      0.095100000000     0.852700000000     0.440200000000     0          
C1081    C      0.114340000000     0.986350000000     0.529250000000     0          
H1082    H      0.116200000000     0.980100000000     0.551600000000     0          
C1083    C      0.108470000000     0.962650000000     0.505020000000     0          
H1084    H      0.105800000000     0.940400000000     0.511000000000     0          
C1085    C      0.091360000000     0.867670000000     0.407790000000     0          
O1086    O      0.124400000000     0.535900000000     0.076610000000     0          
C1087    C      0.114340000000     0.486350000000     0.029250000000     0          
H1088    H      0.116200000000     0.480100000000     0.051600000000     0          
C1089    C      0.108470000000     0.462650000000     0.005020000000     0          
H1090    H      0.105800000000     0.440400000000     0.011000000000     0          
C1091    C      0.091360000000     0.367670000000     0.907790000000     0          
H1092    H      0.091400000000     0.361300000000     0.930100000000     0          
O1093    O      0.625600000000     0.714100000000     0.576610000000     0          
N1094    N      0.654900000000     0.897300000000     0.440200000000     0          
C1095    C      0.635660000000     0.763650000000     0.529250000000     0          
H1096    H      0.633800000000     0.769900000000     0.551600000000     0          
C1097    C      0.641530000000     0.787350000000     0.505020000000     0          
H1098    H      0.644200000000     0.809600000000     0.511000000000     0          
C1099    C      0.658640000000     0.882330000000     0.407790000000     0          
O1100    O      0.625600000000     0.214100000000     0.076610000000     0          
C1101    C      0.635660000000     0.263650000000     0.029250000000     0          
H1102    H      0.633800000000     0.269900000000     0.051600000000     0          
C1103    C      0.641530000000     0.287350000000     0.005020000000     0          
H1104    H      0.644200000000     0.309600000000     0.011000000000     0          
C1105    C      0.658640000000     0.382330000000     0.907790000000     0          
H1106    H      0.658600000000     0.388700000000     0.930100000000     0          
O1107    O      0.125600000000     0.714100000000     0.076610000000     0          
N1108    N      0.154900000000     0.897300000000     0.940200000000     0          
C1109    C      0.135660000000     0.763650000000     0.029250000000     0          
H1110    H      0.133800000000     0.769900000000     0.051600000000     0          
C1111    C      0.141530000000     0.787350000000     0.005020000000     0          
H1112    H      0.144200000000     0.809600000000     0.011000000000     0          
C1113    C      0.158640000000     0.882330000000     0.907790000000     0          
O1114    O      0.125600000000     0.214100000000     0.576610000000     0          
N1115    N      0.154900000000     0.397300000000     0.440200000000     0          
C1116    C      0.135660000000     0.263650000000     0.529250000000     0          
H1117    H      0.133800000000     0.269900000000     0.551600000000     0          
C1118    C      0.141530000000     0.287350000000     0.505020000000     0          
H1119    H      0.144200000000     0.309600000000     0.511000000000     0          
C1120    C      0.158640000000     0.382330000000     0.407790000000     0          
O1121    O      0.714100000000     0.576610000000     0.625600000000     0          
N1122    N      0.897300000000     0.440200000000     0.654900000000     0          
C1123    C      0.763650000000     0.529250000000     0.635660000000     0          
H1124    H      0.769900000000     0.551600000000     0.633800000000     0          
C1125    C      0.787350000000     0.505020000000     0.641530000000     0          
H1126    H      0.809600000000     0.511000000000     0.644200000000     0          
C1127    C      0.882330000000     0.407790000000     0.658640000000     0          
O1128    O      0.714100000000     0.076610000000     0.125600000000     0          
N1129    N      0.897300000000     0.940200000000     0.154900000000     0          
C1130    C      0.763650000000     0.029250000000     0.135660000000     0          
H1131    H      0.769900000000     0.051600000000     0.133800000000     0          
C1132    C      0.787350000000     0.005020000000     0.141530000000     0          
H1133    H      0.809600000000     0.011000000000     0.144200000000     0          
C1134    C      0.882330000000     0.907790000000     0.158640000000     0          
O1135    O      0.214100000000     0.576610000000     0.125600000000     0          
C1136    C      0.263650000000     0.529250000000     0.135660000000     0          
H1137    H      0.269900000000     0.551600000000     0.133800000000     0          
C1138    C      0.287350000000     0.505020000000     0.141530000000     0          
H1139    H      0.309600000000     0.511000000000     0.144200000000     0          
C1140    C      0.382330000000     0.407790000000     0.158640000000     0          
H1141    H      0.388700000000     0.430100000000     0.158600000000     0          
O1142    O      0.214100000000     0.076610000000     0.625600000000     0          
N1143    N      0.397300000000     0.940200000000     0.654900000000     0          
C1144    C      0.263650000000     0.029250000000     0.635660000000     0          
H1145    H      0.269900000000     0.051600000000     0.633800000000     0          
C1146    C      0.287350000000     0.005020000000     0.641530000000     0          
H1147    H      0.309600000000     0.011000000000     0.644200000000     0          
C1148    C      0.382330000000     0.907790000000     0.658640000000     0          
O1149    O      0.035900000000     0.076610000000     0.624400000000     0          
C1150    C      0.986350000000     0.029250000000     0.614340000000     0          
H1151    H      0.980100000000     0.051600000000     0.616200000000     0          
C1152    C      0.962650000000     0.005020000000     0.608470000000     0          
H1153    H      0.940400000000     0.011000000000     0.605800000000     0          
C1154    C      0.867670000000     0.907790000000     0.591360000000     0          
H1155    H      0.861300000000     0.930100000000     0.591400000000     0          
O1156    O      0.035900000000     0.576610000000     0.124400000000     0          
N1157    N      0.852700000000     0.440200000000     0.095100000000     0          
C1158    C      0.986350000000     0.529250000000     0.114340000000     0          
H1159    H      0.980100000000     0.551600000000     0.116200000000     0          
C1160    C      0.962650000000     0.505020000000     0.108470000000     0          
H1161    H      0.940400000000     0.511000000000     0.105800000000     0          
C1162    C      0.867670000000     0.407790000000     0.091360000000     0          
O1163    O      0.535900000000     0.076610000000     0.124400000000     0          
C1164    C      0.486350000000     0.029250000000     0.114340000000     0          
H1165    H      0.480100000000     0.051600000000     0.116200000000     0          
C1166    C      0.462650000000     0.005020000000     0.108470000000     0          
H1167    H      0.440400000000     0.011000000000     0.105800000000     0          
C1168    C      0.367670000000     0.907790000000     0.091360000000     0          
H1169    H      0.361300000000     0.930100000000     0.091400000000     0          
O1170    O      0.535900000000     0.576610000000     0.624400000000     0          
C1171    C      0.486350000000     0.529250000000     0.614340000000     0          
H1172    H      0.480100000000     0.551600000000     0.616200000000     0          
C1173    C      0.462650000000     0.505020000000     0.608470000000     0          
H1174    H      0.440400000000     0.511000000000     0.605800000000     0          
C1175    C      0.367670000000     0.407790000000     0.591360000000     0          
H1176    H      0.361300000000     0.430100000000     0.591400000000     0          
O1177    O      0.535900000000     0.173390000000     0.125600000000     0          
N1178    N      0.352700000000     0.309800000000     0.154900000000     0          
C1179    C      0.486350000000     0.220750000000     0.135660000000     0          
H1180    H      0.480100000000     0.198400000000     0.133800000000     0          
C1181    C      0.462650000000     0.244980000000     0.141530000000     0          
H1182    H      0.440400000000     0.239000000000     0.144200000000     0          
C1183    C      0.367670000000     0.342210000000     0.158640000000     0          
O1184    O      0.535900000000     0.673390000000     0.625600000000     0          
C1185    C      0.486350000000     0.720750000000     0.635660000000     0          
H1186    H      0.480100000000     0.698400000000     0.633800000000     0          
C1187    C      0.462650000000     0.744980000000     0.641530000000     0          
H1188    H      0.440400000000     0.739000000000     0.644200000000     0          
C1189    C      0.367670000000     0.842210000000     0.658640000000     0          
H1190    H      0.361300000000     0.819900000000     0.658600000000     0          
O1191    O      0.035900000000     0.173390000000     0.625600000000     0          
C1192    C      0.986350000000     0.220750000000     0.635660000000     0          
H1193    H      0.980100000000     0.198400000000     0.633800000000     0          
C1194    C      0.962650000000     0.244980000000     0.641530000000     0          
H1195    H      0.940400000000     0.239000000000     0.644200000000     0          
C1196    C      0.867670000000     0.342210000000     0.658640000000     0          
H1197    H      0.861300000000     0.319900000000     0.658600000000     0          
O1198    O      0.035900000000     0.673390000000     0.125600000000     0          
C1199    C      0.986350000000     0.720750000000     0.135660000000     0          
H1200    H      0.980100000000     0.698400000000     0.133800000000     0          
C1201    C      0.962650000000     0.744980000000     0.141530000000     0          
H1202    H      0.940400000000     0.739000000000     0.144200000000     0          
C1203    C      0.867670000000     0.842210000000     0.158640000000     0          
H1204    H      0.861300000000     0.819900000000     0.158600000000     0          
O1205    O      0.214100000000     0.673390000000     0.124400000000     0          
N1206    N      0.397300000000     0.809800000000     0.095100000000     0          
C1207    C      0.263650000000     0.720750000000     0.114340000000     0          
H1208    H      0.269900000000     0.698400000000     0.116200000000     0          
C1209    C      0.287350000000     0.744980000000     0.108470000000     0          
H1210    H      0.309600000000     0.739000000000     0.105800000000     0          
C1211    C      0.382330000000     0.842210000000     0.091360000000     0          
O1212    O      0.214100000000     0.173390000000     0.624400000000     0          
N1213    N      0.397300000000     0.309800000000     0.595100000000     0          
C1214    C      0.263650000000     0.220750000000     0.614340000000     0          
H1215    H      0.269900000000     0.198400000000     0.616200000000     0          
C1216    C      0.287350000000     0.244980000000     0.608470000000     0          
H1217    H      0.309600000000     0.239000000000     0.605800000000     0          
C1218    C      0.382330000000     0.342210000000     0.591360000000     0          
O1219    O      0.714100000000     0.673390000000     0.624400000000     0          
N1220    N      0.897300000000     0.809800000000     0.595100000000     0          
C1221    C      0.763650000000     0.720750000000     0.614340000000     0          
H1222    H      0.769900000000     0.698400000000     0.616200000000     0          
C1223    C      0.787350000000     0.744980000000     0.608470000000     0          
H1224    H      0.809600000000     0.739000000000     0.605800000000     0          
C1225    C      0.882330000000     0.842210000000     0.591360000000     0          
O1226    O      0.714100000000     0.173390000000     0.124400000000     0          
C1227    C      0.763650000000     0.220750000000     0.114340000000     0          
H1228    H      0.769900000000     0.198400000000     0.116200000000     0          
C1229    C      0.787350000000     0.244980000000     0.108470000000     0          
H1230    H      0.809600000000     0.239000000000     0.105800000000     0          
C1231    C      0.882330000000     0.342210000000     0.091360000000     0          
H1232    H      0.888700000000     0.319900000000     0.091400000000     0          
O1233    O      0.076610000000     0.624400000000     0.035900000000     0          
N1234    N      0.940200000000     0.595100000000     0.852700000000     0          
C1235    C      0.029250000000     0.614340000000     0.986350000000     0          
H1236    H      0.051600000000     0.616200000000     0.980100000000     0          
C1237    C      0.005020000000     0.608470000000     0.962650000000     0          
H1238    H      0.011000000000     0.605800000000     0.940400000000     0          
C1239    C      0.907790000000     0.591360000000     0.867670000000     0          
O1240    O      0.076610000000     0.124400000000     0.535900000000     0          
C1241    C      0.029250000000     0.114340000000     0.486350000000     0          
H1242    H      0.051600000000     0.116200000000     0.480100000000     0          
C1243    C      0.005020000000     0.108470000000     0.462650000000     0          
H1244    H      0.011000000000     0.105800000000     0.440400000000     0          
C1245    C      0.907790000000     0.091360000000     0.367670000000     0          
H1246    H      0.930100000000     0.091400000000     0.361300000000     0          
O1247    O      0.576610000000     0.624400000000     0.535900000000     0          
N1248    N      0.440200000000     0.595100000000     0.352700000000     0          
C1249    C      0.529250000000     0.614340000000     0.486350000000     0          
H1250    H      0.551600000000     0.616200000000     0.480100000000     0          
C1251    C      0.505020000000     0.608470000000     0.462650000000     0          
H1252    H      0.511000000000     0.605800000000     0.440400000000     0          
C1253    C      0.407790000000     0.591360000000     0.367670000000     0          
O1254    O      0.576610000000     0.124400000000     0.035900000000     0          
N1255    N      0.440200000000     0.095100000000     0.852700000000     0          
C1256    C      0.529250000000     0.114340000000     0.986350000000     0          
H1257    H      0.551600000000     0.116200000000     0.980100000000     0          
C1258    C      0.505020000000     0.108470000000     0.962650000000     0          
H1259    H      0.511000000000     0.105800000000     0.940400000000     0          
C1260    C      0.407790000000     0.091360000000     0.867670000000     0          
O1261    O      0.576610000000     0.625600000000     0.714100000000     0          
N1262    N      0.440200000000     0.654900000000     0.897300000000     0          
C1263    C      0.529250000000     0.635660000000     0.763650000000     0          
H1264    H      0.551600000000     0.633800000000     0.769900000000     0          
C1265    C      0.505020000000     0.641530000000     0.787350000000     0          
H1266    H      0.511000000000     0.644200000000     0.809600000000     0          
C1267    C      0.407790000000     0.658640000000     0.882330000000     0          
O1268    O      0.576610000000     0.125600000000     0.214100000000     0          
N1269    N      0.440200000000     0.154900000000     0.397300000000     0          
C1270    C      0.529250000000     0.135660000000     0.263650000000     0          
H1271    H      0.551600000000     0.133800000000     0.269900000000     0          
C1272    C      0.505020000000     0.141530000000     0.287350000000     0          
H1273    H      0.511000000000     0.144200000000     0.309600000000     0          
C1274    C      0.407790000000     0.158640000000     0.382330000000     0          
O1275    O      0.076610000000     0.625600000000     0.214100000000     0          
N1276    N      0.940200000000     0.654900000000     0.397300000000     0          
C1277    C      0.029250000000     0.635660000000     0.263650000000     0          
H1278    H      0.051600000000     0.633800000000     0.269900000000     0          
C1279    C      0.005020000000     0.641530000000     0.287350000000     0          
H1280    H      0.011000000000     0.644200000000     0.309600000000     0          
C1281    C      0.907790000000     0.658640000000     0.382330000000     0          
O1282    O      0.076610000000     0.125600000000     0.714100000000     0          
N1283    N      0.940200000000     0.154900000000     0.897300000000     0          
C1284    C      0.029250000000     0.135660000000     0.763650000000     0          
H1285    H      0.051600000000     0.133800000000     0.769900000000     0          
C1286    C      0.005020000000     0.141530000000     0.787350000000     0          
H1287    H      0.011000000000     0.144200000000     0.809600000000     0          
C1288    C      0.907790000000     0.158640000000     0.882330000000     0          
O1289    O      0.673390000000     0.124400000000     0.214100000000     0          
N1290    N      0.809800000000     0.095100000000     0.397300000000     0          
C1291    C      0.720750000000     0.114340000000     0.263650000000     0          
H1292    H      0.698400000000     0.116200000000     0.269900000000     0          
C1293    C      0.744980000000     0.108470000000     0.287350000000     0          
H1294    H      0.739000000000     0.105800000000     0.309600000000     0          
C1295    C      0.842210000000     0.091360000000     0.382330000000     0          
O1296    O      0.673390000000     0.624400000000     0.714100000000     0          
C1297    C      0.720750000000     0.614340000000     0.763650000000     0          
H1298    H      0.698400000000     0.616200000000     0.769900000000     0          
C1299    C      0.744980000000     0.608470000000     0.787350000000     0          
H1300    H      0.739000000000     0.605800000000     0.809600000000     0          
C1301    C      0.842210000000     0.591360000000     0.882330000000     0          
H1302    H      0.819900000000     0.591400000000     0.888700000000     0          
O1303    O      0.173390000000     0.124400000000     0.714100000000     0          
C1304    C      0.220750000000     0.114340000000     0.763650000000     0          
H1305    H      0.198400000000     0.116200000000     0.769900000000     0          
C1306    C      0.244980000000     0.108470000000     0.787350000000     0          
H1307    H      0.239000000000     0.105800000000     0.809600000000     0          
C1308    C      0.342210000000     0.091360000000     0.882330000000     0          
H1309    H      0.319900000000     0.091400000000     0.888700000000     0          
O1310    O      0.173390000000     0.624400000000     0.214100000000     0          
C1311    C      0.220750000000     0.614340000000     0.263650000000     0          
H1312    H      0.198400000000     0.616200000000     0.269900000000     0          
C1313    C      0.244980000000     0.608470000000     0.287350000000     0          
H1314    H      0.239000000000     0.605800000000     0.309600000000     0          
C1315    C      0.342210000000     0.591360000000     0.382330000000     0          
H1316    H      0.319900000000     0.591400000000     0.388700000000     0          
O1317    O      0.173390000000     0.125600000000     0.535900000000     0          
C1318    C      0.220750000000     0.135660000000     0.486350000000     0          
H1319    H      0.198400000000     0.133800000000     0.480100000000     0          
C1320    C      0.244980000000     0.141530000000     0.462650000000     0          
H1321    H      0.239000000000     0.144200000000     0.440400000000     0          
C1322    C      0.342210000000     0.158640000000     0.367670000000     0          
H1323    H      0.319900000000     0.158600000000     0.361300000000     0          
O1324    O      0.173390000000     0.625600000000     0.035900000000     0          
C1325    C      0.220750000000     0.635660000000     0.986350000000     0          
H1326    H      0.198400000000     0.633800000000     0.980100000000     0          
C1327    C      0.244980000000     0.641530000000     0.962650000000     0          
H1328    H      0.239000000000     0.644200000000     0.940400000000     0          
C1329    C      0.342210000000     0.658640000000     0.867670000000     0          
H1330    H      0.319900000000     0.658600000000     0.861300000000     0          
O1331    O      0.673390000000     0.125600000000     0.035900000000     0          
C1332    C      0.720750000000     0.135660000000     0.986350000000     0          
H1333    H      0.698400000000     0.133800000000     0.980100000000     0          
C1334    C      0.744980000000     0.141530000000     0.962650000000     0          
H1335    H      0.739000000000     0.144200000000     0.940400000000     0          
C1336    C      0.842210000000     0.158640000000     0.867670000000     0          
H1337    H      0.819900000000     0.158600000000     0.861300000000     0          
O1338    O      0.673390000000     0.625600000000     0.535900000000     0          
C1339    C      0.720750000000     0.635660000000     0.486350000000     0          
H1340    H      0.698400000000     0.633800000000     0.480100000000     0          
C1341    C      0.744980000000     0.641530000000     0.462650000000     0          
H1342    H      0.739000000000     0.644200000000     0.440400000000     0          
C1343    C      0.842210000000     0.658640000000     0.367670000000     0          
H1344    H      0.819900000000     0.658600000000     0.361300000000     0          
Zr1345   Zr     0.563100000000     0.125000000000     0.125000000000     0          
Zr1346   Zr     0.563100000000     0.625000000000     0.625000000000     0          
Zr1347   Zr     0.063100000000     0.125000000000     0.625000000000     0          
Zr1348   Zr     0.063100000000     0.625000000000     0.125000000000     0          
Zr1349   Zr     0.186900000000     0.125000000000     0.625000000000     0          
Zr1350   Zr     0.686900000000     0.625000000000     0.625000000000     0          
Zr1351   Zr     0.686900000000     0.125000000000     0.125000000000     0          
Zr1352   Zr     0.125000000000     0.563100000000     0.125000000000     0          
Zr1353   Zr     0.125000000000     0.063100000000     0.625000000000     0          
Zr1354   Zr     0.625000000000     0.063100000000     0.125000000000     0          
Zr1355   Zr     0.625000000000     0.186900000000     0.125000000000     0          
Zr1356   Zr     0.625000000000     0.686900000000     0.625000000000     0          
Zr1357   Zr     0.625000000000     0.563100000000     0.625000000000     0          
Zr1358   Zr     0.125000000000     0.125000000000     0.563100000000     0          
Zr1359   Zr     0.125000000000     0.625000000000     0.063100000000     0          
Zr1360   Zr     0.625000000000     0.125000000000     0.063100000000     0          
Zr1361   Zr     0.125000000000     0.625000000000     0.186900000000     0          
Zr1362   Zr     0.125000000000     0.125000000000     0.686900000000     0          
Zr1363   Zr     0.625000000000     0.625000000000     0.686900000000     0          
Zr1364   Zr     0.625000000000     0.625000000000     0.563100000000     0          
Zr1365   Zr     0.875000000000     0.813100000000     0.375000000000     0          
Zr1366   Zr     0.875000000000     0.313100000000     0.875000000000     0          
Zr1367   Zr     0.875000000000     0.436900000000     0.875000000000     0          
Zr1368   Zr     0.375000000000     0.936900000000     0.875000000000     0          
Zr1369   Zr     0.375000000000     0.436900000000     0.375000000000     0          
Zr1370   Zr     0.375000000000     0.313100000000     0.375000000000     0          
Zr1371   Zr     0.313100000000     0.375000000000     0.375000000000     0          
Zr1372   Zr     0.313100000000     0.875000000000     0.875000000000     0          
Zr1373   Zr     0.936900000000     0.875000000000     0.375000000000     0          
Zr1374   Zr     0.436900000000     0.875000000000     0.875000000000     0          
Zr1375   Zr     0.436900000000     0.375000000000     0.375000000000     0          
Zr1376   Zr     0.813100000000     0.375000000000     0.875000000000     0          
Zr1377   Zr     0.875000000000     0.375000000000     0.936900000000     0          
Zr1378   Zr     0.375000000000     0.375000000000     0.313100000000     0          
Zr1379   Zr     0.875000000000     0.875000000000     0.313100000000     0          
Zr1380   Zr     0.375000000000     0.875000000000     0.813100000000     0          
Zr1381   Zr     0.875000000000     0.875000000000     0.436900000000     0          
Zr1382   Zr     0.813100000000     0.875000000000     0.375000000000     0          
Zr1383   Zr     0.936900000000     0.375000000000     0.875000000000     0          
Zr1384   Zr     0.375000000000     0.813100000000     0.875000000000     0          
Zr1385   Zr     0.875000000000     0.936900000000     0.375000000000     0          
Zr1386   Zr     0.875000000000     0.375000000000     0.813100000000     0          
Zr1387   Zr     0.375000000000     0.875000000000     0.936900000000     0          
Zr1388   Zr     0.375000000000     0.375000000000     0.436900000000     0          
Zr1389   Zr     0.125000000000     0.186900000000     0.625000000000     0          
Zr1390   Zr     0.125000000000     0.686900000000     0.125000000000     0          
Zr1391   Zr     0.186900000000     0.625000000000     0.125000000000     0          
Zr1392   Zr     0.625000000000     0.125000000000     0.186900000000     0          
S1393    S      0.436890000000     0.098750000000     0.813110000000     0          
S1394    S      0.436890000000     0.598750000000     0.313110000000     0          
S1395    S      0.936890000000     0.651250000000     0.436890000000     0          
S1396    S      0.936890000000     0.151250000000     0.936890000000     0          
S1397    S      0.436890000000     0.151250000000     0.436890000000     0          
S1398    S      0.313110000000     0.313110000000     0.151250000000     0          
S1399    S      0.813110000000     0.436890000000     0.098750000000     0          
S1400    S      0.436890000000     0.936890000000     0.651250000000     0          
S1401    S      0.936890000000     0.813110000000     0.598750000000     0          
S1402    S      0.436890000000     0.313110000000     0.598750000000     0          
S1403    S      0.651250000000     0.313110000000     0.813110000000     0          
S1404    S      0.098750000000     0.813110000000     0.436890000000     0          
S1405    S      0.598750000000     0.313110000000     0.436890000000     0          
S1406    S      0.151250000000     0.436890000000     0.436890000000     0          
S1407    S      0.348750000000     0.686890000000     0.186890000000     0          
S1408    S      0.401250000000     0.686890000000     0.563110000000     0          
S1409    S      0.901250000000     0.686890000000     0.063110000000     0          
S1410    S      0.348750000000     0.063110000000     0.563110000000     0          
S1411    S      0.848750000000     0.063110000000     0.063110000000     0          
S1412    S      0.063110000000     0.563110000000     0.348750000000     0          
S1413    S      0.063110000000     0.063110000000     0.848750000000     0          
S1414    S      0.186890000000     0.063110000000     0.401250000000     0          
S1415    S      0.563110000000     0.186890000000     0.901250000000     0          
S1416    S      0.563110000000     0.686890000000     0.401250000000     0          
S1417    S      0.063110000000     0.686890000000     0.901250000000     0          
S1418    S      0.063110000000     0.401250000000     0.186890000000     0          
S1419    S      0.063110000000     0.901250000000     0.686890000000     0          
S1420    S      0.063110000000     0.848750000000     0.063110000000     0          
S1421    S      0.686890000000     0.848750000000     0.686890000000     0          
S1422    S      0.686890000000     0.348750000000     0.186890000000     0          
S1423    S      0.563110000000     0.901250000000     0.186890000000     0          
S1424    S      0.563110000000     0.401250000000     0.686890000000     0          
S1425    S      0.063110000000     0.348750000000     0.563110000000     0          
S1426    S      0.563110000000     0.063110000000     0.348750000000     0          
S1427    S      0.563110000000     0.563110000000     0.848750000000     0          
S1428    S      0.901250000000     0.186890000000     0.563110000000     0          
S1429    S      0.848750000000     0.563110000000     0.563110000000     0          
S1430    S      0.401250000000     0.063110000000     0.186890000000     0          
S1431    S      0.098750000000     0.436890000000     0.813110000000     0          
S1432    S      0.598750000000     0.813110000000     0.936890000000     0          
S1433    S      0.651250000000     0.936890000000     0.436890000000     0          
S1434    S      0.151250000000     0.936890000000     0.936890000000     0          
S1435    S      0.936890000000     0.436890000000     0.651250000000     0          
S1436    S      0.936890000000     0.936890000000     0.151250000000     0          
S1437    S      0.436890000000     0.813110000000     0.098750000000     0          
S1438    S      0.936890000000     0.598750000000     0.813110000000     0          
S1439    S      0.436890000000     0.651250000000     0.936890000000     0          
S1440    S      0.813110000000     0.098750000000     0.436890000000     0          
O1441    O      0.595710000000     0.095710000000     0.095710000000     0          
O1442    O      0.595710000000     0.595710000000     0.595710000000     0          
O1443    O      0.154290000000     0.154290000000     0.595710000000     0          
O1444    O      0.154290000000     0.654290000000     0.095710000000     0          
O1445    O      0.654290000000     0.154290000000     0.095710000000     0          
O1446    O      0.654290000000     0.595710000000     0.654290000000     0          
O1447    O      0.154290000000     0.095710000000     0.654290000000     0          
O1448    O      0.095710000000     0.654290000000     0.154290000000     0          
O1449    O      0.095710000000     0.595710000000     0.095710000000     0          
O1450    O      0.595710000000     0.154290000000     0.154290000000     0          
O1451    O      0.095710000000     0.154290000000     0.654290000000     0          
O1452    O      0.654290000000     0.654290000000     0.595710000000     0          
O1453    O      0.095710000000     0.095710000000     0.595710000000     0          
O1454    O      0.154290000000     0.595710000000     0.154290000000     0          
O1455    O      0.654290000000     0.095710000000     0.154290000000     0          
O1456    O      0.595710000000     0.654290000000     0.654290000000     0          
O1457    O      0.845710000000     0.845710000000     0.404290000000     0          
O1458    O      0.904290000000     0.404290000000     0.904290000000     0          
O1459    O      0.345710000000     0.904290000000     0.845710000000     0          
O1460    O      0.345710000000     0.404290000000     0.345710000000     0          
O1461    O      0.845710000000     0.404290000000     0.845710000000     0          
O1462    O      0.404290000000     0.345710000000     0.345710000000     0          
O1463    O      0.345710000000     0.345710000000     0.404290000000     0          
O1464    O      0.904290000000     0.845710000000     0.345710000000     0          
O1465    O      0.404290000000     0.845710000000     0.845710000000     0          
O1466    O      0.404290000000     0.904290000000     0.904290000000     0          
O1467    O      0.404290000000     0.404290000000     0.404290000000     0          
O1468    O      0.845710000000     0.345710000000     0.904290000000     0          
O1469    O      0.904290000000     0.904290000000     0.404290000000     0          
O1470    O      0.904290000000     0.345710000000     0.845710000000     0          
O1471    O      0.845710000000     0.904290000000     0.345710000000     0          
O1472    O      0.345710000000     0.845710000000     0.904290000000     0          
O1473    O      0.592570000000     0.157430000000     0.092570000000     0          
O1474    O      0.592570000000     0.657430000000     0.592570000000     0          
O1475    O      0.157430000000     0.092570000000     0.592570000000     0          
O1476    O      0.657430000000     0.092570000000     0.092570000000     0          
O1477    O      0.657430000000     0.592570000000     0.592570000000     0          
O1478    O      0.657430000000     0.657430000000     0.657430000000     0          
O1479    O      0.657430000000     0.157430000000     0.157430000000     0          
O1480    O      0.157430000000     0.657430000000     0.157430000000     0          
O1481    O      0.157430000000     0.157430000000     0.657430000000     0          
O1482    O      0.092570000000     0.592570000000     0.157430000000     0          
O1483    O      0.092570000000     0.092570000000     0.657430000000     0          
O1484    O      0.592570000000     0.092570000000     0.157430000000     0          
O1485    O      0.907430000000     0.842570000000     0.407430000000     0          
O1486    O      0.907430000000     0.342570000000     0.907430000000     0          
O1487    O      0.842570000000     0.407430000000     0.907430000000     0          
O1488    O      0.342570000000     0.407430000000     0.407430000000     0          
O1489    O      0.407430000000     0.907430000000     0.842570000000     0          
O1490    O      0.407430000000     0.407430000000     0.342570000000     0          
O1491    O      0.342570000000     0.342570000000     0.342570000000     0          
O1492    O      0.342570000000     0.842570000000     0.842570000000     0          
O1493    O      0.842570000000     0.342570000000     0.842570000000     0          
O1494    O      0.842570000000     0.842570000000     0.342570000000     0          
O1495    O      0.342570000000     0.907430000000     0.907430000000     0          
O1496    O      0.842570000000     0.907430000000     0.407430000000     0          
O1497    O      0.407430000000     0.842570000000     0.907430000000     0          
O1498    O      0.407430000000     0.342570000000     0.407430000000     0          
O1499    O      0.907430000000     0.407430000000     0.842570000000     0          
O1500    O      0.907430000000     0.907430000000     0.342570000000     0          
O1501    O      0.092570000000     0.157430000000     0.592570000000     0          
O1502    O      0.092570000000     0.657430000000     0.092570000000     0          
O1503    O      0.157430000000     0.592570000000     0.092570000000     0          
O1504    O      0.592570000000     0.592570000000     0.657430000000     0          
C1505    C      0.546320000000     0.128030000000     0.203680000000     0          
C1506    C      0.519950000000     0.132470000000     0.230050000000     0          
C1507    C      0.471800000000     0.143500000000     0.278200000000     0          
C1508    C      0.446330000000     0.149800000000     0.303670000000     0          
C1509    C      0.425450000000     0.154800000000     0.324550000000     0          
C1510    C      0.400110000000     0.158600000000     0.349890000000     0          
C1511    C      0.046320000000     0.128030000000     0.703680000000     0          
C1512    C      0.019950000000     0.132470000000     0.730050000000     0          
C1513    C      0.971800000000     0.143500000000     0.778200000000     0          
C1514    C      0.946330000000     0.149800000000     0.803670000000     0          
C1515    C      0.925450000000     0.154800000000     0.824550000000     0          
C1516    C      0.900110000000     0.158600000000     0.849890000000     0          
C1517    C      0.046320000000     0.628030000000     0.203680000000     0          
C1518    C      0.019950000000     0.632470000000     0.230050000000     0          
C1519    C      0.971800000000     0.643500000000     0.278200000000     0          
C1520    C      0.946330000000     0.649800000000     0.303670000000     0          
C1521    C      0.925450000000     0.654800000000     0.324550000000     0          
C1522    C      0.900110000000     0.658600000000     0.349890000000     0          
C1523    C      0.203680000000     0.121970000000     0.703680000000     0          
C1524    C      0.230050000000     0.117530000000     0.730050000000     0          
C1525    C      0.278200000000     0.106500000000     0.778200000000     0          
C1526    C      0.303670000000     0.100200000000     0.803670000000     0          
C1527    C      0.324550000000     0.095200000000     0.824550000000     0          
C1528    C      0.349890000000     0.091400000000     0.849890000000     0          
C1529    C      0.203680000000     0.621970000000     0.203680000000     0          
C1530    C      0.230050000000     0.617530000000     0.230050000000     0          
C1531    C      0.278200000000     0.606500000000     0.278200000000     0          
C1532    C      0.303670000000     0.600200000000     0.303670000000     0          
C1533    C      0.324550000000     0.595200000000     0.324550000000     0          
C1534    C      0.349890000000     0.591400000000     0.349890000000     0          
C1535    C      0.703680000000     0.621970000000     0.703680000000     0          
C1536    C      0.730050000000     0.617530000000     0.730050000000     0          
C1537    C      0.778200000000     0.606500000000     0.778200000000     0          
C1538    C      0.803670000000     0.600200000000     0.803670000000     0          
C1539    C      0.824550000000     0.595200000000     0.824550000000     0          
C1540    C      0.849890000000     0.591400000000     0.849890000000     0          
C1541    C      0.703680000000     0.628030000000     0.546320000000     0          
C1542    C      0.730050000000     0.632470000000     0.519950000000     0          
C1543    C      0.778200000000     0.643500000000     0.471800000000     0          
C1544    C      0.803670000000     0.649800000000     0.446330000000     0          
C1545    C      0.824550000000     0.654800000000     0.425450000000     0          
C1546    C      0.849890000000     0.658600000000     0.400110000000     0          
C1547    C      0.703680000000     0.128030000000     0.046320000000     0          
C1548    C      0.730050000000     0.132470000000     0.019950000000     0          
C1549    C      0.778200000000     0.143500000000     0.971800000000     0          
C1550    C      0.803670000000     0.149800000000     0.946330000000     0          
C1551    C      0.824550000000     0.154800000000     0.925450000000     0          
C1552    C      0.849890000000     0.158600000000     0.900110000000     0          
C1553    C      0.203680000000     0.628030000000     0.046320000000     0          
C1554    C      0.230050000000     0.632470000000     0.019950000000     0          
C1555    C      0.278200000000     0.643500000000     0.971800000000     0          
C1556    C      0.303670000000     0.649800000000     0.946330000000     0          
C1557    C      0.324550000000     0.654800000000     0.925450000000     0          
C1558    C      0.349890000000     0.658600000000     0.900110000000     0          
C1559    C      0.046320000000     0.621970000000     0.046320000000     0          
C1560    C      0.019950000000     0.617530000000     0.019950000000     0          
C1561    C      0.971800000000     0.606500000000     0.971800000000     0          
C1562    C      0.946330000000     0.600200000000     0.946330000000     0          
C1563    C      0.925450000000     0.595200000000     0.925450000000     0          
C1564    C      0.900110000000     0.591400000000     0.900110000000     0          
C1565    C      0.046320000000     0.121970000000     0.546320000000     0          
C1566    C      0.019950000000     0.117530000000     0.519950000000     0          
C1567    C      0.971800000000     0.106500000000     0.471800000000     0          
C1568    C      0.946330000000     0.100200000000     0.446330000000     0          
C1569    C      0.925450000000     0.095200000000     0.425450000000     0          
C1570    C      0.900110000000     0.091400000000     0.400110000000     0          
C1571    C      0.546320000000     0.621970000000     0.546320000000     0          
C1572    C      0.519950000000     0.617530000000     0.519950000000     0          
C1573    C      0.471800000000     0.606500000000     0.471800000000     0          
C1574    C      0.446330000000     0.600200000000     0.446330000000     0          
C1575    C      0.425450000000     0.595200000000     0.425450000000     0          
C1576    C      0.400110000000     0.591400000000     0.400110000000     0          
C1577    C      0.546320000000     0.121970000000     0.046320000000     0          
C1578    C      0.519950000000     0.117530000000     0.019950000000     0          
C1579    C      0.471800000000     0.106500000000     0.971800000000     0          
C1580    C      0.446330000000     0.100200000000     0.946330000000     0          
C1581    C      0.425450000000     0.095200000000     0.925450000000     0          
C1582    C      0.400110000000     0.091400000000     0.900110000000     0          
C1583    C      0.203680000000     0.546320000000     0.128030000000     0          
C1584    C      0.230050000000     0.519950000000     0.132470000000     0          
C1585    C      0.278200000000     0.471800000000     0.143500000000     0          
C1586    C      0.303670000000     0.446330000000     0.149800000000     0          
C1587    C      0.324550000000     0.425450000000     0.154800000000     0          
C1588    C      0.349890000000     0.400110000000     0.158600000000     0          
C1589    C      0.203680000000     0.046320000000     0.628030000000     0          
C1590    C      0.230050000000     0.019950000000     0.632470000000     0          
C1591    C      0.278200000000     0.971800000000     0.643500000000     0          
C1592    C      0.303670000000     0.946330000000     0.649800000000     0          
C1593    C      0.324550000000     0.925450000000     0.654800000000     0          
C1594    C      0.349890000000     0.900110000000     0.658600000000     0          
C1595    C      0.703680000000     0.203680000000     0.121970000000     0          
C1596    C      0.730050000000     0.230050000000     0.117530000000     0          
C1597    C      0.778200000000     0.278200000000     0.106500000000     0          
C1598    C      0.803670000000     0.303670000000     0.100200000000     0          
C1599    C      0.824550000000     0.324550000000     0.095200000000     0          
C1600    C      0.849890000000     0.349890000000     0.091400000000     0          
C1601    C      0.703680000000     0.703680000000     0.621970000000     0          
C1602    C      0.730050000000     0.730050000000     0.617530000000     0          
C1603    C      0.778200000000     0.778200000000     0.606500000000     0          
C1604    C      0.803670000000     0.803670000000     0.600200000000     0          
C1605    C      0.824550000000     0.824550000000     0.595200000000     0          
C1606    C      0.849890000000     0.849890000000     0.591400000000     0          
C1607    C      0.546320000000     0.703680000000     0.628030000000     0          
C1608    C      0.519950000000     0.730050000000     0.632470000000     0          
C1609    C      0.471800000000     0.778200000000     0.643500000000     0          
C1610    C      0.446330000000     0.803670000000     0.649800000000     0          
C1611    C      0.425450000000     0.824550000000     0.654800000000     0          
C1612    C      0.400110000000     0.849890000000     0.658600000000     0          
C1613    C      0.046320000000     0.703680000000     0.128030000000     0          
C1614    C      0.019950000000     0.730050000000     0.132470000000     0          
C1615    C      0.971800000000     0.778200000000     0.143500000000     0          
C1616    C      0.946330000000     0.803670000000     0.149800000000     0          
C1617    C      0.925450000000     0.824550000000     0.154800000000     0          
C1618    C      0.900110000000     0.849890000000     0.158600000000     0          
C1619    C      0.046320000000     0.203680000000     0.628030000000     0          
C1620    C      0.019950000000     0.230050000000     0.632470000000     0          
C1621    C      0.971800000000     0.278200000000     0.643500000000     0          
C1622    C      0.946330000000     0.303670000000     0.649800000000     0          
C1623    C      0.925450000000     0.324550000000     0.654800000000     0          
C1624    C      0.900110000000     0.349890000000     0.658600000000     0          
C1625    C      0.046320000000     0.046320000000     0.621970000000     0          
C1626    C      0.019950000000     0.019950000000     0.617530000000     0          
C1627    C      0.971800000000     0.971800000000     0.606500000000     0          
C1628    C      0.946330000000     0.946330000000     0.600200000000     0          
C1629    C      0.925450000000     0.925450000000     0.595200000000     0          
C1630    C      0.900110000000     0.900110000000     0.591400000000     0          
C1631    C      0.046320000000     0.546320000000     0.121970000000     0          
C1632    C      0.019950000000     0.519950000000     0.117530000000     0          
C1633    C      0.971800000000     0.471800000000     0.106500000000     0          
C1634    C      0.946330000000     0.446330000000     0.100200000000     0          
C1635    C      0.925450000000     0.425450000000     0.095200000000     0          
C1636    C      0.900110000000     0.400110000000     0.091400000000     0          
C1637    C      0.546320000000     0.046320000000     0.121970000000     0          
C1638    C      0.519950000000     0.019950000000     0.117530000000     0          
C1639    C      0.471800000000     0.971800000000     0.106500000000     0          
C1640    C      0.446330000000     0.946330000000     0.100200000000     0          
C1641    C      0.425450000000     0.925450000000     0.095200000000     0          
C1642    C      0.400110000000     0.900110000000     0.091400000000     0          
C1643    C      0.546320000000     0.546320000000     0.621970000000     0          
C1644    C      0.519950000000     0.519950000000     0.617530000000     0          
C1645    C      0.471800000000     0.471800000000     0.606500000000     0          
C1646    C      0.446330000000     0.446330000000     0.600200000000     0          
C1647    C      0.425450000000     0.425450000000     0.595200000000     0          
C1648    C      0.400110000000     0.400110000000     0.591400000000     0          
C1649    C      0.128030000000     0.203680000000     0.546320000000     0          
C1650    C      0.132470000000     0.230050000000     0.519950000000     0          
C1651    C      0.143500000000     0.278200000000     0.471800000000     0          
C1652    C      0.149800000000     0.303670000000     0.446330000000     0          
C1653    C      0.154800000000     0.324550000000     0.425450000000     0          
C1654    C      0.158600000000     0.349890000000     0.400110000000     0          
C1655    C      0.128030000000     0.703680000000     0.046320000000     0          
C1656    C      0.132470000000     0.730050000000     0.019950000000     0          
C1657    C      0.143500000000     0.778200000000     0.971800000000     0          
C1658    C      0.149800000000     0.803670000000     0.946330000000     0          
C1659    C      0.154800000000     0.824550000000     0.925450000000     0          
C1660    C      0.158600000000     0.849890000000     0.900110000000     0          
C1661    C      0.628030000000     0.203680000000     0.046320000000     0          
C1662    C      0.632470000000     0.230050000000     0.019950000000     0          
C1663    C      0.643500000000     0.278200000000     0.971800000000     0          
C1664    C      0.649800000000     0.303670000000     0.946330000000     0          
C1665    C      0.654800000000     0.324550000000     0.925450000000     0          
C1666    C      0.658600000000     0.349890000000     0.900110000000     0          
C1667    C      0.121970000000     0.703680000000     0.203680000000     0          
C1668    C      0.117530000000     0.730050000000     0.230050000000     0          
C1669    C      0.106500000000     0.778200000000     0.278200000000     0          
C1670    C      0.100200000000     0.803670000000     0.303670000000     0          
C1671    C      0.095200000000     0.824550000000     0.324550000000     0          
C1672    C      0.091400000000     0.849890000000     0.349890000000     0          
C1673    C      0.621970000000     0.703680000000     0.703680000000     0          
C1674    C      0.617530000000     0.730050000000     0.730050000000     0          
C1675    C      0.606500000000     0.778200000000     0.778200000000     0          
C1676    C      0.600200000000     0.803670000000     0.803670000000     0          
C1677    C      0.595200000000     0.824550000000     0.824550000000     0          
C1678    C      0.591400000000     0.849890000000     0.849890000000     0          
C1679    C      0.628030000000     0.546320000000     0.703680000000     0          
C1680    C      0.632470000000     0.519950000000     0.730050000000     0          
C1681    C      0.643500000000     0.471800000000     0.778200000000     0          
C1682    C      0.649800000000     0.446330000000     0.803670000000     0          
C1683    C      0.654800000000     0.425450000000     0.824550000000     0          
C1684    C      0.658600000000     0.400110000000     0.849890000000     0          
C1685    C      0.628030000000     0.046320000000     0.203680000000     0          
C1686    C      0.632470000000     0.019950000000     0.230050000000     0          
C1687    C      0.643500000000     0.971800000000     0.278200000000     0          
C1688    C      0.649800000000     0.946330000000     0.303670000000     0          
C1689    C      0.654800000000     0.925450000000     0.324550000000     0          
C1690    C      0.658600000000     0.900110000000     0.349890000000     0          
C1691    C      0.621970000000     0.046320000000     0.046320000000     0          
C1692    C      0.617530000000     0.019950000000     0.019950000000     0          
C1693    C      0.606500000000     0.971800000000     0.971800000000     0          
C1694    C      0.600200000000     0.946330000000     0.946330000000     0          
C1695    C      0.595200000000     0.925450000000     0.925450000000     0          
C1696    C      0.591400000000     0.900110000000     0.900110000000     0          
C1697    C      0.621970000000     0.546320000000     0.546320000000     0          
C1698    C      0.617530000000     0.519950000000     0.519950000000     0          
C1699    C      0.606500000000     0.471800000000     0.471800000000     0          
C1700    C      0.600200000000     0.446330000000     0.446330000000     0          
C1701    C      0.595200000000     0.425450000000     0.425450000000     0          
C1702    C      0.591400000000     0.400110000000     0.400110000000     0          
C1703    C      0.121970000000     0.046320000000     0.546320000000     0          
C1704    C      0.117530000000     0.019950000000     0.519950000000     0          
C1705    C      0.106500000000     0.971800000000     0.471800000000     0          
C1706    C      0.100200000000     0.946330000000     0.446330000000     0          
C1707    C      0.095200000000     0.925450000000     0.425450000000     0          
C1708    C      0.091400000000     0.900110000000     0.400110000000     0          
C1709    C      0.121970000000     0.546320000000     0.046320000000     0          
C1710    C      0.117530000000     0.519950000000     0.019950000000     0          
C1711    C      0.106500000000     0.471800000000     0.971800000000     0          
C1712    C      0.100200000000     0.446330000000     0.946330000000     0          
C1713    C      0.095200000000     0.425450000000     0.925450000000     0          
C1714    C      0.091400000000     0.400110000000     0.900110000000     0          
C1715    C      0.878030000000     0.796320000000     0.296320000000     0          
C1716    C      0.882470000000     0.769950000000     0.269950000000     0          
C1717    C      0.893500000000     0.721800000000     0.221800000000     0          
C1718    C      0.899800000000     0.696330000000     0.196330000000     0          
C1719    C      0.904800000000     0.675450000000     0.175450000000     0          
C1720    C      0.908600000000     0.650110000000     0.150110000000     0          
C1721    C      0.378030000000     0.796320000000     0.796320000000     0          
C1722    C      0.382470000000     0.769950000000     0.769950000000     0          
C1723    C      0.393500000000     0.721800000000     0.721800000000     0          
C1724    C      0.399800000000     0.696330000000     0.696330000000     0          
C1725    C      0.404800000000     0.675450000000     0.675450000000     0          
C1726    C      0.408600000000     0.650110000000     0.650110000000     0          
C1727    C      0.871970000000     0.453680000000     0.796320000000     0          
C1728    C      0.867530000000     0.480050000000     0.769950000000     0          
C1729    C      0.856500000000     0.528200000000     0.721800000000     0          
C1730    C      0.850200000000     0.553670000000     0.696330000000     0          
C1731    C      0.845200000000     0.574550000000     0.675450000000     0          
C1732    C      0.841400000000     0.599890000000     0.650110000000     0          
C1733    C      0.871970000000     0.953680000000     0.296320000000     0          
C1734    C      0.867530000000     0.980050000000     0.269950000000     0          
C1735    C      0.856500000000     0.028200000000     0.221800000000     0          
C1736    C      0.850200000000     0.053670000000     0.196330000000     0          
C1737    C      0.845200000000     0.074550000000     0.175450000000     0          
C1738    C      0.841400000000     0.099890000000     0.150110000000     0          
C1739    C      0.378030000000     0.953680000000     0.953680000000     0          
C1740    C      0.382470000000     0.980050000000     0.980050000000     0          
C1741    C      0.393500000000     0.028200000000     0.028200000000     0          
C1742    C      0.399800000000     0.053670000000     0.053670000000     0          
C1743    C      0.404800000000     0.074550000000     0.074550000000     0          
C1744    C      0.408600000000     0.099890000000     0.099890000000     0          
C1745    C      0.378030000000     0.453680000000     0.453680000000     0          
C1746    C      0.382470000000     0.480050000000     0.480050000000     0          
C1747    C      0.393500000000     0.528200000000     0.528200000000     0          
C1748    C      0.399800000000     0.553670000000     0.553670000000     0          
C1749    C      0.404800000000     0.574550000000     0.574550000000     0          
C1750    C      0.408600000000     0.599890000000     0.599890000000     0          
C1751    C      0.878030000000     0.953680000000     0.453680000000     0          
C1752    C      0.882470000000     0.980050000000     0.480050000000     0          
C1753    C      0.893500000000     0.028200000000     0.528200000000     0          
C1754    C      0.899800000000     0.053670000000     0.553670000000     0          
C1755    C      0.904800000000     0.074550000000     0.574550000000     0          
C1756    C      0.908600000000     0.099890000000     0.599890000000     0          
C1757    C      0.878030000000     0.453680000000     0.953680000000     0          
C1758    C      0.882470000000     0.480050000000     0.980050000000     0          
C1759    C      0.893500000000     0.528200000000     0.028200000000     0          
C1760    C      0.899800000000     0.553670000000     0.053670000000     0          
C1761    C      0.904800000000     0.574550000000     0.074550000000     0          
C1762    C      0.908600000000     0.599890000000     0.099890000000     0          
C1763    C      0.371970000000     0.296320000000     0.453680000000     0          
C1764    C      0.367530000000     0.269950000000     0.480050000000     0          
C1765    C      0.356500000000     0.221800000000     0.528200000000     0          
C1766    C      0.350200000000     0.196330000000     0.553670000000     0          
C1767    C      0.345200000000     0.175450000000     0.574550000000     0          
C1768    C      0.341400000000     0.150110000000     0.599890000000     0          
C1769    C      0.371970000000     0.796320000000     0.953680000000     0          
C1770    C      0.367530000000     0.769950000000     0.980050000000     0          
C1771    C      0.356500000000     0.721800000000     0.028200000000     0          
C1772    C      0.350200000000     0.696330000000     0.053670000000     0          
C1773    C      0.345200000000     0.675450000000     0.074550000000     0          
C1774    C      0.341400000000     0.650110000000     0.099890000000     0          
C1775    C      0.296320000000     0.453680000000     0.371970000000     0          
C1776    C      0.269950000000     0.480050000000     0.367530000000     0          
C1777    C      0.221800000000     0.528200000000     0.356500000000     0          
C1778    C      0.196330000000     0.553670000000     0.350200000000     0          
C1779    C      0.175450000000     0.574550000000     0.345200000000     0          
C1780    C      0.150110000000     0.599890000000     0.341400000000     0          
C1781    C      0.296320000000     0.953680000000     0.871970000000     0          
C1782    C      0.269950000000     0.980050000000     0.867530000000     0          
C1783    C      0.221800000000     0.028200000000     0.856500000000     0          
C1784    C      0.196330000000     0.053670000000     0.850200000000     0          
C1785    C      0.175450000000     0.074550000000     0.845200000000     0          
C1786    C      0.150110000000     0.099890000000     0.841400000000     0          
C1787    C      0.953680000000     0.953680000000     0.378030000000     0          
C1788    C      0.980050000000     0.980050000000     0.382470000000     0          
C1789    C      0.028200000000     0.028200000000     0.393500000000     0          
C1790    C      0.053670000000     0.053670000000     0.399800000000     0          
C1791    C      0.074550000000     0.074550000000     0.404800000000     0          
C1792    C      0.099890000000     0.099890000000     0.408600000000     0          
C1793    C      0.953680000000     0.453680000000     0.878030000000     0          
C1794    C      0.980050000000     0.480050000000     0.882470000000     0          
C1795    C      0.028200000000     0.528200000000     0.893500000000     0          
C1796    C      0.053670000000     0.553670000000     0.899800000000     0          
C1797    C      0.074550000000     0.574550000000     0.904800000000     0          
C1798    C      0.099890000000     0.599890000000     0.908600000000     0          
C1799    C      0.453680000000     0.953680000000     0.878030000000     0          
C1800    C      0.480050000000     0.980050000000     0.882470000000     0          
C1801    C      0.528200000000     0.028200000000     0.893500000000     0          
C1802    C      0.553670000000     0.053670000000     0.899800000000     0          
C1803    C      0.574550000000     0.074550000000     0.904800000000     0          
C1804    C      0.599890000000     0.099890000000     0.908600000000     0          
C1805    C      0.453680000000     0.453680000000     0.378030000000     0          
C1806    C      0.480050000000     0.480050000000     0.382470000000     0          
C1807    C      0.528200000000     0.528200000000     0.393500000000     0          
C1808    C      0.553670000000     0.553670000000     0.399800000000     0          
C1809    C      0.574550000000     0.574550000000     0.404800000000     0          
C1810    C      0.599890000000     0.599890000000     0.408600000000     0          
C1811    C      0.453680000000     0.796320000000     0.871970000000     0          
C1812    C      0.480050000000     0.769950000000     0.867530000000     0          
C1813    C      0.528200000000     0.721800000000     0.856500000000     0          
C1814    C      0.553670000000     0.696330000000     0.850200000000     0          
C1815    C      0.574550000000     0.675450000000     0.845200000000     0          
C1816    C      0.599890000000     0.650110000000     0.841400000000     0          
C1817    C      0.953680000000     0.796320000000     0.371970000000     0          
C1818    C      0.980050000000     0.769950000000     0.367530000000     0          
C1819    C      0.028200000000     0.721800000000     0.356500000000     0          
C1820    C      0.053670000000     0.696330000000     0.350200000000     0          
C1821    C      0.074550000000     0.675450000000     0.345200000000     0          
C1822    C      0.099890000000     0.650110000000     0.341400000000     0          
C1823    C      0.796320000000     0.296320000000     0.878030000000     0          
C1824    C      0.769950000000     0.269950000000     0.882470000000     0          
C1825    C      0.721800000000     0.221800000000     0.893500000000     0          
C1826    C      0.696330000000     0.196330000000     0.899800000000     0          
C1827    C      0.675450000000     0.175450000000     0.904800000000     0          
C1828    C      0.650110000000     0.150110000000     0.908600000000     0          
C1829    C      0.796320000000     0.796320000000     0.378030000000     0          
C1830    C      0.769950000000     0.769950000000     0.382470000000     0          
C1831    C      0.721800000000     0.721800000000     0.393500000000     0          
C1832    C      0.696330000000     0.696330000000     0.399800000000     0          
C1833    C      0.675450000000     0.675450000000     0.404800000000     0          
C1834    C      0.650110000000     0.650110000000     0.408600000000     0          
C1835    C      0.953680000000     0.378030000000     0.953680000000     0          
C1836    C      0.980050000000     0.382470000000     0.980050000000     0          
C1837    C      0.028200000000     0.393500000000     0.028200000000     0          
C1838    C      0.053670000000     0.399800000000     0.053670000000     0          
C1839    C      0.074550000000     0.404800000000     0.074550000000     0          
C1840    C      0.099890000000     0.408600000000     0.099890000000     0          
C1841    C      0.953680000000     0.878030000000     0.453680000000     0          
C1842    C      0.980050000000     0.882470000000     0.480050000000     0          
C1843    C      0.028200000000     0.893500000000     0.528200000000     0          
C1844    C      0.053670000000     0.899800000000     0.553670000000     0          
C1845    C      0.074550000000     0.904800000000     0.574550000000     0          
C1846    C      0.099890000000     0.908600000000     0.599890000000     0          
C1847    C      0.453680000000     0.378030000000     0.453680000000     0          
C1848    C      0.480050000000     0.382470000000     0.480050000000     0          
C1849    C      0.528200000000     0.393500000000     0.528200000000     0          
C1850    C      0.553670000000     0.399800000000     0.553670000000     0          
C1851    C      0.574550000000     0.404800000000     0.574550000000     0          
C1852    C      0.599890000000     0.408600000000     0.599890000000     0          
C1853    C      0.453680000000     0.878030000000     0.953680000000     0          
C1854    C      0.480050000000     0.882470000000     0.980050000000     0          
C1855    C      0.528200000000     0.893500000000     0.028200000000     0          
C1856    C      0.553670000000     0.899800000000     0.053670000000     0          
C1857    C      0.574550000000     0.904800000000     0.074550000000     0          
C1858    C      0.599890000000     0.908600000000     0.099890000000     0          
C1859    C      0.453680000000     0.371970000000     0.296320000000     0          
C1860    C      0.480050000000     0.367530000000     0.269950000000     0          
C1861    C      0.528200000000     0.356500000000     0.221800000000     0          
C1862    C      0.553670000000     0.350200000000     0.196330000000     0          
C1863    C      0.574550000000     0.345200000000     0.175450000000     0          
C1864    C      0.599890000000     0.341400000000     0.150110000000     0          
C1865    C      0.953680000000     0.371970000000     0.796320000000     0          
C1866    C      0.980050000000     0.367530000000     0.769950000000     0          
C1867    C      0.028200000000     0.356500000000     0.721800000000     0          
C1868    C      0.053670000000     0.350200000000     0.696330000000     0          
C1869    C      0.074550000000     0.345200000000     0.675450000000     0          
C1870    C      0.099890000000     0.341400000000     0.650110000000     0          
C1871    C      0.296320000000     0.878030000000     0.796320000000     0          
C1872    C      0.269950000000     0.882470000000     0.769950000000     0          
C1873    C      0.221800000000     0.893500000000     0.721800000000     0          
C1874    C      0.196330000000     0.899800000000     0.696330000000     0          
C1875    C      0.175450000000     0.904800000000     0.675450000000     0          
C1876    C      0.150110000000     0.908600000000     0.650110000000     0          
C1877    C      0.296320000000     0.378030000000     0.296320000000     0          
C1878    C      0.269950000000     0.382470000000     0.269950000000     0          
C1879    C      0.221800000000     0.393500000000     0.221800000000     0          
C1880    C      0.196330000000     0.399800000000     0.196330000000     0          
C1881    C      0.175450000000     0.404800000000     0.175450000000     0          
C1882    C      0.150110000000     0.408600000000     0.150110000000     0          
C1883    C      0.796320000000     0.378030000000     0.796320000000     0          
C1884    C      0.769950000000     0.382470000000     0.769950000000     0          
C1885    C      0.721800000000     0.393500000000     0.721800000000     0          
C1886    C      0.696330000000     0.399800000000     0.696330000000     0          
C1887    C      0.675450000000     0.404800000000     0.675450000000     0          
C1888    C      0.650110000000     0.408600000000     0.650110000000     0          
C1889    C      0.796320000000     0.871970000000     0.453680000000     0          
C1890    C      0.769950000000     0.867530000000     0.480050000000     0          
C1891    C      0.721800000000     0.856500000000     0.528200000000     0          
C1892    C      0.696330000000     0.850200000000     0.553670000000     0          
C1893    C      0.675450000000     0.845200000000     0.574550000000     0          
C1894    C      0.650110000000     0.841400000000     0.599890000000     0          
C1895    C      0.796320000000     0.371970000000     0.953680000000     0          
C1896    C      0.769950000000     0.367530000000     0.980050000000     0          
C1897    C      0.721800000000     0.356500000000     0.028200000000     0          
C1898    C      0.696330000000     0.350200000000     0.053670000000     0          
C1899    C      0.675450000000     0.345200000000     0.074550000000     0          
C1900    C      0.650110000000     0.341400000000     0.099890000000     0          
C1901    C      0.453680000000     0.871970000000     0.796320000000     0          
C1902    C      0.480050000000     0.867530000000     0.769950000000     0          
C1903    C      0.528200000000     0.856500000000     0.721800000000     0          
C1904    C      0.553670000000     0.850200000000     0.696330000000     0          
C1905    C      0.574550000000     0.845200000000     0.675450000000     0          
C1906    C      0.599890000000     0.841400000000     0.650110000000     0          
C1907    C      0.953680000000     0.871970000000     0.296320000000     0          
C1908    C      0.980050000000     0.867530000000     0.269950000000     0          
C1909    C      0.028200000000     0.856500000000     0.221800000000     0          
C1910    C      0.053670000000     0.850200000000     0.196330000000     0          
C1911    C      0.074550000000     0.845200000000     0.175450000000     0          
C1912    C      0.099890000000     0.841400000000     0.150110000000     0          
C1913    C      0.796320000000     0.878030000000     0.296320000000     0          
C1914    C      0.769950000000     0.882470000000     0.269950000000     0          
C1915    C      0.721800000000     0.893500000000     0.221800000000     0          
C1916    C      0.696330000000     0.899800000000     0.196330000000     0          
C1917    C      0.675450000000     0.904800000000     0.175450000000     0          
C1918    C      0.650110000000     0.908600000000     0.150110000000     0          
C1919    C      0.296320000000     0.371970000000     0.453680000000     0          
C1920    C      0.269950000000     0.367530000000     0.480050000000     0          
C1921    C      0.221800000000     0.356500000000     0.528200000000     0          
C1922    C      0.196330000000     0.350200000000     0.553670000000     0          
C1923    C      0.175450000000     0.345200000000     0.574550000000     0          
C1924    C      0.150110000000     0.341400000000     0.599890000000     0          
C1925    C      0.296320000000     0.871970000000     0.953680000000     0          
C1926    C      0.269950000000     0.867530000000     0.980050000000     0          
C1927    C      0.221800000000     0.856500000000     0.028200000000     0          
C1928    C      0.196330000000     0.850200000000     0.053670000000     0          
C1929    C      0.175450000000     0.845200000000     0.074550000000     0          
C1930    C      0.150110000000     0.841400000000     0.099890000000     0          
C1931    C      0.796320000000     0.453680000000     0.871970000000     0          
C1932    C      0.769950000000     0.480050000000     0.867530000000     0          
C1933    C      0.721800000000     0.528200000000     0.856500000000     0          
C1934    C      0.696330000000     0.553670000000     0.850200000000     0          
C1935    C      0.675450000000     0.574550000000     0.845200000000     0          
C1936    C      0.650110000000     0.599890000000     0.841400000000     0          
C1937    C      0.796320000000     0.953680000000     0.371970000000     0          
C1938    C      0.769950000000     0.980050000000     0.367530000000     0          
C1939    C      0.721800000000     0.028200000000     0.356500000000     0          
C1940    C      0.696330000000     0.053670000000     0.350200000000     0          
C1941    C      0.675450000000     0.074550000000     0.345200000000     0          
C1942    C      0.650110000000     0.099890000000     0.341400000000     0          
C1943    C      0.296320000000     0.796320000000     0.878030000000     0          
C1944    C      0.269950000000     0.769950000000     0.882470000000     0          
C1945    C      0.221800000000     0.721800000000     0.893500000000     0          
C1946    C      0.196330000000     0.696330000000     0.899800000000     0          
C1947    C      0.175450000000     0.675450000000     0.904800000000     0          
C1948    C      0.150110000000     0.650110000000     0.908600000000     0          
C1949    C      0.296320000000     0.296320000000     0.378030000000     0          
C1950    C      0.269950000000     0.269950000000     0.382470000000     0          
C1951    C      0.221800000000     0.221800000000     0.393500000000     0          
C1952    C      0.196330000000     0.196330000000     0.399800000000     0          
C1953    C      0.175450000000     0.175450000000     0.404800000000     0          
C1954    C      0.150110000000     0.150110000000     0.408600000000     0          
C1955    C      0.453680000000     0.296320000000     0.371970000000     0          
C1956    C      0.480050000000     0.269950000000     0.367530000000     0          
C1957    C      0.528200000000     0.221800000000     0.356500000000     0          
C1958    C      0.553670000000     0.196330000000     0.350200000000     0          
C1959    C      0.574550000000     0.175450000000     0.345200000000     0          
C1960    C      0.599890000000     0.150110000000     0.341400000000     0          
C1961    C      0.953680000000     0.296320000000     0.871970000000     0          
C1962    C      0.980050000000     0.269950000000     0.867530000000     0          
C1963    C      0.028200000000     0.221800000000     0.856500000000     0          
C1964    C      0.053670000000     0.196330000000     0.850200000000     0          
C1965    C      0.074550000000     0.175450000000     0.845200000000     0          
C1966    C      0.099890000000     0.150110000000     0.841400000000     0          
C1967    C      0.871970000000     0.796320000000     0.453680000000     0          
C1968    C      0.867530000000     0.769950000000     0.480050000000     0          
C1969    C      0.856500000000     0.721800000000     0.528200000000     0          
C1970    C      0.850200000000     0.696330000000     0.553670000000     0          
C1971    C      0.845200000000     0.675450000000     0.574550000000     0          
C1972    C      0.841400000000     0.650110000000     0.599890000000     0          
C1973    C      0.871970000000     0.296320000000     0.953680000000     0          
C1974    C      0.867530000000     0.269950000000     0.980050000000     0          
C1975    C      0.856500000000     0.221800000000     0.028200000000     0          
C1976    C      0.850200000000     0.196330000000     0.053670000000     0          
C1977    C      0.845200000000     0.175450000000     0.074550000000     0          
C1978    C      0.841400000000     0.150110000000     0.099890000000     0          
C1979    C      0.878030000000     0.296320000000     0.796320000000     0          
C1980    C      0.882470000000     0.269950000000     0.769950000000     0          
C1981    C      0.893500000000     0.221800000000     0.721800000000     0          
C1982    C      0.899800000000     0.196330000000     0.696330000000     0          
C1983    C      0.904800000000     0.175450000000     0.675450000000     0          
C1984    C      0.908600000000     0.150110000000     0.650110000000     0          
C1985    C      0.378030000000     0.296320000000     0.296320000000     0          
C1986    C      0.382470000000     0.269950000000     0.269950000000     0          
C1987    C      0.393500000000     0.221800000000     0.221800000000     0          
C1988    C      0.399800000000     0.196330000000     0.196330000000     0          
C1989    C      0.404800000000     0.175450000000     0.175450000000     0          
C1990    C      0.408600000000     0.150110000000     0.150110000000     0          
C1991    C      0.371970000000     0.453680000000     0.296320000000     0          
C1992    C      0.367530000000     0.480050000000     0.269950000000     0          
C1993    C      0.356500000000     0.528200000000     0.221800000000     0          
C1994    C      0.350200000000     0.553670000000     0.196330000000     0          
C1995    C      0.345200000000     0.574550000000     0.175450000000     0          
C1996    C      0.341400000000     0.599890000000     0.150110000000     0          
C1997    C      0.371970000000     0.953680000000     0.796320000000     0          
C1998    C      0.367530000000     0.980050000000     0.769950000000     0          
C1999    C      0.356500000000     0.028200000000     0.721800000000     0          
C2000    C      0.350200000000     0.053670000000     0.696330000000     0          
C2001    C      0.345200000000     0.074550000000     0.675450000000     0          
C2002    C      0.341400000000     0.099890000000     0.650110000000     0          
C2003    C      0.121970000000     0.203680000000     0.703680000000     0          
C2004    C      0.117530000000     0.230050000000     0.730050000000     0          
C2005    C      0.106500000000     0.278200000000     0.778200000000     0          
C2006    C      0.100200000000     0.303670000000     0.803670000000     0          
C2007    C      0.095200000000     0.324550000000     0.824550000000     0          
C2008    C      0.091400000000     0.349890000000     0.849890000000     0          
C2009    C      0.621970000000     0.203680000000     0.203680000000     0          
C2010    C      0.617530000000     0.230050000000     0.230050000000     0          
C2011    C      0.606500000000     0.278200000000     0.278200000000     0          
C2012    C      0.600200000000     0.303670000000     0.303670000000     0          
C2013    C      0.595200000000     0.324550000000     0.324550000000     0          
C2014    C      0.591400000000     0.349890000000     0.349890000000     0          
C2015    C      0.128030000000     0.546320000000     0.203680000000     0          
C2016    C      0.132470000000     0.519950000000     0.230050000000     0          
C2017    C      0.143500000000     0.471800000000     0.278200000000     0          
C2018    C      0.149800000000     0.446330000000     0.303670000000     0          
C2019    C      0.154800000000     0.425450000000     0.324550000000     0          
C2020    C      0.158600000000     0.400110000000     0.349890000000     0          
C2021    C      0.128030000000     0.046320000000     0.703680000000     0          
C2022    C      0.132470000000     0.019950000000     0.730050000000     0          
C2023    C      0.143500000000     0.971800000000     0.778200000000     0          
C2024    C      0.149800000000     0.946330000000     0.803670000000     0          
C2025    C      0.154800000000     0.925450000000     0.824550000000     0          
C2026    C      0.158600000000     0.900110000000     0.849890000000     0          
C2027    C      0.628030000000     0.703680000000     0.546320000000     0          
C2028    C      0.632470000000     0.730050000000     0.519950000000     0          
C2029    C      0.643500000000     0.778200000000     0.471800000000     0          
C2030    C      0.649800000000     0.803670000000     0.446330000000     0          
C2031    C      0.654800000000     0.824550000000     0.425450000000     0          
C2032    C      0.658600000000     0.849890000000     0.400110000000     0          
C2033    C      0.703680000000     0.546320000000     0.628030000000     0          
C2034    C      0.730050000000     0.519950000000     0.632470000000     0          
C2035    C      0.778200000000     0.471800000000     0.643500000000     0          
C2036    C      0.803670000000     0.446330000000     0.649800000000     0          
C2037    C      0.824550000000     0.425450000000     0.654800000000     0          
C2038    C      0.849890000000     0.400110000000     0.658600000000     0          
C2039    C      0.703680000000     0.046320000000     0.128030000000     0          
C2040    C      0.730050000000     0.019950000000     0.132470000000     0          
C2041    C      0.778200000000     0.971800000000     0.143500000000     0          
C2042    C      0.803670000000     0.946330000000     0.149800000000     0          
C2043    C      0.824550000000     0.925450000000     0.154800000000     0          
C2044    C      0.849890000000     0.900110000000     0.158600000000     0          
C2045    C      0.546320000000     0.203680000000     0.128030000000     0          
C2046    C      0.519950000000     0.230050000000     0.132470000000     0          
C2047    C      0.471800000000     0.278200000000     0.143500000000     0          
C2048    C      0.446330000000     0.303670000000     0.149800000000     0          
C2049    C      0.425450000000     0.324550000000     0.154800000000     0          
C2050    C      0.400110000000     0.349890000000     0.158600000000     0          
C2051    C      0.203680000000     0.703680000000     0.121970000000     0          
C2052    C      0.230050000000     0.730050000000     0.117530000000     0          
C2053    C      0.278200000000     0.778200000000     0.106500000000     0          
C2054    C      0.303670000000     0.803670000000     0.100200000000     0          
C2055    C      0.324550000000     0.824550000000     0.095200000000     0          
C2056    C      0.349890000000     0.849890000000     0.091400000000     0          
C2057    C      0.203680000000     0.203680000000     0.621970000000     0          
C2058    C      0.230050000000     0.230050000000     0.617530000000     0          
C2059    C      0.278200000000     0.278200000000     0.606500000000     0          
C2060    C      0.303670000000     0.303670000000     0.600200000000     0          
C2061    C      0.324550000000     0.324550000000     0.595200000000     0          
C2062    C      0.349890000000     0.349890000000     0.591400000000     0          
C2063    C      0.546320000000     0.628030000000     0.703680000000     0          
C2064    C      0.519950000000     0.632470000000     0.730050000000     0          
C2065    C      0.471800000000     0.643500000000     0.778200000000     0          
C2066    C      0.446330000000     0.649800000000     0.803670000000     0          
C2067    C      0.425450000000     0.654800000000     0.824550000000     0          
C2068    C      0.400110000000     0.658600000000     0.849890000000     0          
C2069    C      0.703680000000     0.121970000000     0.203680000000     0          
C2070    C      0.730050000000     0.117530000000     0.230050000000     0          
C2071    C      0.778200000000     0.106500000000     0.278200000000     0          
C2072    C      0.803670000000     0.100200000000     0.303670000000     0          
C2073    C      0.824550000000     0.095200000000     0.324550000000     0          
C2074    C      0.849890000000     0.091400000000     0.349890000000     0          
C2075    C      0.203680000000     0.128030000000     0.546320000000     0          
C2076    C      0.230050000000     0.132470000000     0.519950000000     0          
C2077    C      0.278200000000     0.143500000000     0.471800000000     0          
C2078    C      0.303670000000     0.149800000000     0.446330000000     0          
C2079    C      0.324550000000     0.154800000000     0.425450000000     0          
C2080    C      0.349890000000     0.158600000000     0.400110000000     0          


