data_GERBIR

_audit_creation_method RASPA-1.0
_audit_creation_date 2020-11-2
_audit_author_name 'Rocio Bueno-Perez'

_cell_length_a    18.018
_cell_length_b    33.1022
_cell_length_c    35.0246
_cell_angle_alpha 90
_cell_angle_beta  90
_cell_angle_gamma 90
_cell_volume      20889.9

_symmetry_cell_setting          triclinic
_symmetry_space_group_name_Hall 'P 1'
_symmetry_space_group_name_H-M  'P 1'
_symmetry_Int_Tables_number     1

_symmetry_equiv_pos_as_xyz 'x,y,z'

loop_
_atom_site_label
_atom_site_type_symbol
_atom_site_fract_x
_atom_site_fract_y
_atom_site_fract_z
_atom_site_charge
O1       O      0.573080000000     0.539900000000     0.601540000000     0          
O2       O      0.636200000000     0.576920000000     0.558130000000     0          
C3       C      0.617300000000     0.568300000000     0.592000000000     0          
C4       C      0.645900000000     0.593610000000     0.623860000000     0          
C5       C      0.723100000000     0.706190000000     0.718520000000     0          
C6       C      0.723900000000     0.663830000000     0.717920000000     0          
C7       C      0.690900000000     0.626570000000     0.617660000000     0          
H8       H      0.705600000000     0.633200000000     0.592400000000     0          
C9       C      0.715100000000     0.650110000000     0.647740000000     0          
H10      H      0.744700000000     0.673300000000     0.642800000000     0          
C11      C      0.696600000000     0.640270000000     0.684930000000     0          
C12      C      0.650500000000     0.607320000000     0.690980000000     0          
H13      H      0.635800000000     0.600600000000     0.716200000000     0          
C14      C      0.625600000000     0.584080000000     0.660740000000     0          
H15      H      0.594300000000     0.561500000000     0.665400000000     0          
O16      O      0.573080000000     0.039900000000     0.101540000000     0          
O17      O      0.636200000000     0.076920000000     0.058130000000     0          
C18      C      0.617300000000     0.068300000000     0.092000000000     0          
C19      C      0.645900000000     0.093610000000     0.123860000000     0          
C20      C      0.723100000000     0.206190000000     0.218520000000     0          
C21      C      0.723900000000     0.163830000000     0.217920000000     0          
C22      C      0.690900000000     0.126570000000     0.117660000000     0          
H23      H      0.705600000000     0.133200000000     0.092400000000     0          
C24      C      0.715100000000     0.150110000000     0.147740000000     0          
H25      H      0.744700000000     0.173300000000     0.142800000000     0          
C26      C      0.696600000000     0.140270000000     0.184930000000     0          
C27      C      0.650500000000     0.107320000000     0.190980000000     0          
H28      H      0.635800000000     0.100600000000     0.216200000000     0          
C29      C      0.625600000000     0.084080000000     0.160740000000     0          
H30      H      0.594300000000     0.061500000000     0.165400000000     0          
O31      O      0.073080000000     0.539900000000     0.101540000000     0          
O32      O      0.136200000000     0.576920000000     0.058130000000     0          
C33      C      0.117300000000     0.568300000000     0.092000000000     0          
C34      C      0.145900000000     0.593610000000     0.123860000000     0          
C35      C      0.223100000000     0.706190000000     0.218520000000     0          
C36      C      0.223900000000     0.663830000000     0.217920000000     0          
C37      C      0.190900000000     0.626570000000     0.117660000000     0          
H38      H      0.205600000000     0.633200000000     0.092400000000     0          
C39      C      0.215100000000     0.650110000000     0.147740000000     0          
H40      H      0.244700000000     0.673300000000     0.142800000000     0          
C41      C      0.196600000000     0.640270000000     0.184930000000     0          
C42      C      0.150500000000     0.607320000000     0.190980000000     0          
H43      H      0.135800000000     0.600600000000     0.216200000000     0          
C44      C      0.125600000000     0.584080000000     0.160740000000     0          
H45      H      0.094300000000     0.561500000000     0.165400000000     0          
O46      O      0.189800000000     0.724470000000     0.187150000000     0          
H47      H      0.177400000000     0.748200000000     0.192900000000     0          
O48      O      0.073080000000     0.039900000000     0.601540000000     0          
O49      O      0.136200000000     0.076920000000     0.558130000000     0          
C50      C      0.117300000000     0.068300000000     0.592000000000     0          
C51      C      0.145900000000     0.093610000000     0.623860000000     0          
C52      C      0.223100000000     0.206190000000     0.718520000000     0          
C53      C      0.223900000000     0.163830000000     0.717920000000     0          
C54      C      0.190900000000     0.126570000000     0.617660000000     0          
H55      H      0.205600000000     0.133200000000     0.592400000000     0          
C56      C      0.215100000000     0.150110000000     0.647740000000     0          
H57      H      0.244700000000     0.173300000000     0.642800000000     0          
C58      C      0.196600000000     0.140270000000     0.684930000000     0          
C59      C      0.150500000000     0.107320000000     0.690980000000     0          
H60      H      0.135800000000     0.100600000000     0.716200000000     0          
C61      C      0.125600000000     0.084080000000     0.660740000000     0          
H62      H      0.094300000000     0.061500000000     0.665400000000     0          
O63      O      0.189800000000     0.224470000000     0.687150000000     0          
H64      H      0.177400000000     0.248200000000     0.692900000000     0          
O65      O      0.426920000000     0.460100000000     0.601540000000     0          
O66      O      0.363800000000     0.423080000000     0.558130000000     0          
C67      C      0.382700000000     0.431700000000     0.592000000000     0          
C68      C      0.354100000000     0.406390000000     0.623860000000     0          
C69      C      0.276900000000     0.293810000000     0.718520000000     0          
C70      C      0.276100000000     0.336170000000     0.717920000000     0          
C71      C      0.309100000000     0.373430000000     0.617660000000     0          
H72      H      0.294400000000     0.366800000000     0.592400000000     0          
C73      C      0.284900000000     0.349890000000     0.647740000000     0          
H74      H      0.255300000000     0.326700000000     0.642800000000     0          
C75      C      0.303400000000     0.359730000000     0.684930000000     0          
C76      C      0.349500000000     0.392680000000     0.690980000000     0          
H77      H      0.364200000000     0.399400000000     0.716200000000     0          
C78      C      0.374400000000     0.415920000000     0.660740000000     0          
H79      H      0.405700000000     0.438500000000     0.665400000000     0          
O80      O      0.426920000000     0.960100000000     0.101540000000     0          
O81      O      0.363800000000     0.923080000000     0.058130000000     0          
C82      C      0.382700000000     0.931700000000     0.092000000000     0          
C83      C      0.354100000000     0.906390000000     0.123860000000     0          
C84      C      0.276900000000     0.793810000000     0.218520000000     0          
C85      C      0.276100000000     0.836170000000     0.217920000000     0          
C86      C      0.309100000000     0.873430000000     0.117660000000     0          
H87      H      0.294400000000     0.866800000000     0.092400000000     0          
C88      C      0.284900000000     0.849890000000     0.147740000000     0          
H89      H      0.255300000000     0.826700000000     0.142800000000     0          
C90      C      0.303400000000     0.859730000000     0.184930000000     0          
C91      C      0.349500000000     0.892680000000     0.190980000000     0          
H92      H      0.364200000000     0.899400000000     0.216200000000     0          
C93      C      0.374400000000     0.915920000000     0.160740000000     0          
H94      H      0.405700000000     0.938500000000     0.165400000000     0          
O95      O      0.926920000000     0.460100000000     0.101540000000     0          
O96      O      0.863800000000     0.423080000000     0.058130000000     0          
C97      C      0.882700000000     0.431700000000     0.092000000000     0          
C98      C      0.854100000000     0.406390000000     0.123860000000     0          
C99      C      0.776900000000     0.293810000000     0.218520000000     0          
C100     C      0.776100000000     0.336170000000     0.217920000000     0          
C101     C      0.809100000000     0.373430000000     0.117660000000     0          
H102     H      0.794400000000     0.366800000000     0.092400000000     0          
C103     C      0.784900000000     0.349890000000     0.147740000000     0          
H104     H      0.755300000000     0.326700000000     0.142800000000     0          
C105     C      0.803400000000     0.359730000000     0.184930000000     0          
C106     C      0.849500000000     0.392680000000     0.190980000000     0          
H107     H      0.864200000000     0.399400000000     0.216200000000     0          
C108     C      0.874400000000     0.415920000000     0.160740000000     0          
H109     H      0.905700000000     0.438500000000     0.165400000000     0          
O110     O      0.810200000000     0.275530000000     0.187150000000     0          
H111     H      0.822600000000     0.251800000000     0.192900000000     0          
O112     O      0.926920000000     0.960100000000     0.601540000000     0          
O113     O      0.863800000000     0.923080000000     0.558130000000     0          
C114     C      0.882700000000     0.931700000000     0.592000000000     0          
C115     C      0.854100000000     0.906390000000     0.623860000000     0          
C116     C      0.776900000000     0.793810000000     0.718520000000     0          
C117     C      0.776100000000     0.836170000000     0.717920000000     0          
C118     C      0.809100000000     0.873430000000     0.617660000000     0          
H119     H      0.794400000000     0.866800000000     0.592400000000     0          
C120     C      0.784900000000     0.849890000000     0.647740000000     0          
H121     H      0.755300000000     0.826700000000     0.642800000000     0          
C122     C      0.803400000000     0.859730000000     0.684930000000     0          
C123     C      0.849500000000     0.892680000000     0.690980000000     0          
H124     H      0.864200000000     0.899400000000     0.716200000000     0          
C125     C      0.874400000000     0.915920000000     0.660740000000     0          
H126     H      0.905700000000     0.938500000000     0.665400000000     0          
O127     O      0.810200000000     0.775530000000     0.687150000000     0          
H128     H      0.822600000000     0.751800000000     0.692900000000     0          
O129     O      0.426920000000     0.539900000000     0.398460000000     0          
O130     O      0.363800000000     0.576920000000     0.441870000000     0          
C131     C      0.382700000000     0.568300000000     0.408000000000     0          
C132     C      0.354100000000     0.593610000000     0.376140000000     0          
C133     C      0.276900000000     0.706190000000     0.281480000000     0          
C134     C      0.276100000000     0.663830000000     0.282080000000     0          
C135     C      0.309100000000     0.626570000000     0.382340000000     0          
H136     H      0.294400000000     0.633200000000     0.407600000000     0          
C137     C      0.284900000000     0.650110000000     0.352260000000     0          
H138     H      0.255300000000     0.673300000000     0.357200000000     0          
C139     C      0.303400000000     0.640270000000     0.315070000000     0          
C140     C      0.349500000000     0.607320000000     0.309020000000     0          
H141     H      0.364200000000     0.600600000000     0.283800000000     0          
C142     C      0.374400000000     0.584080000000     0.339260000000     0          
H143     H      0.405700000000     0.561500000000     0.334600000000     0          
O144     O      0.426920000000     0.039900000000     0.898460000000     0          
O145     O      0.363800000000     0.076920000000     0.941870000000     0          
C146     C      0.382700000000     0.068300000000     0.908000000000     0          
C147     C      0.354100000000     0.093610000000     0.876140000000     0          
C148     C      0.276900000000     0.206190000000     0.781480000000     0          
C149     C      0.276100000000     0.163830000000     0.782080000000     0          
C150     C      0.309100000000     0.126570000000     0.882340000000     0          
H151     H      0.294400000000     0.133200000000     0.907600000000     0          
C152     C      0.284900000000     0.150110000000     0.852260000000     0          
H153     H      0.255300000000     0.173300000000     0.857200000000     0          
C154     C      0.303400000000     0.140270000000     0.815070000000     0          
C155     C      0.349500000000     0.107320000000     0.809020000000     0          
H156     H      0.364200000000     0.100600000000     0.783800000000     0          
C157     C      0.374400000000     0.084080000000     0.839260000000     0          
H158     H      0.405700000000     0.061500000000     0.834600000000     0          
O159     O      0.926920000000     0.539900000000     0.898460000000     0          
O160     O      0.863800000000     0.576920000000     0.941870000000     0          
C161     C      0.882700000000     0.568300000000     0.908000000000     0          
C162     C      0.854100000000     0.593610000000     0.876140000000     0          
C163     C      0.776900000000     0.706190000000     0.781480000000     0          
C164     C      0.776100000000     0.663830000000     0.782080000000     0          
C165     C      0.809100000000     0.626570000000     0.882340000000     0          
H166     H      0.794400000000     0.633200000000     0.907600000000     0          
C167     C      0.784900000000     0.650110000000     0.852260000000     0          
H168     H      0.755300000000     0.673300000000     0.857200000000     0          
C169     C      0.803400000000     0.640270000000     0.815070000000     0          
C170     C      0.849500000000     0.607320000000     0.809020000000     0          
H171     H      0.864200000000     0.600600000000     0.783800000000     0          
C172     C      0.874400000000     0.584080000000     0.839260000000     0          
H173     H      0.905700000000     0.561500000000     0.834600000000     0          
O174     O      0.810200000000     0.724470000000     0.812850000000     0          
H175     H      0.822600000000     0.748200000000     0.807100000000     0          
O176     O      0.926920000000     0.039900000000     0.398460000000     0          
O177     O      0.863800000000     0.076920000000     0.441870000000     0          
C178     C      0.882700000000     0.068300000000     0.408000000000     0          
C179     C      0.854100000000     0.093610000000     0.376140000000     0          
C180     C      0.776900000000     0.206190000000     0.281480000000     0          
C181     C      0.776100000000     0.163830000000     0.282080000000     0          
C182     C      0.809100000000     0.126570000000     0.382340000000     0          
H183     H      0.794400000000     0.133200000000     0.407600000000     0          
C184     C      0.784900000000     0.150110000000     0.352260000000     0          
H185     H      0.755300000000     0.173300000000     0.357200000000     0          
C186     C      0.803400000000     0.140270000000     0.315070000000     0          
C187     C      0.849500000000     0.107320000000     0.309020000000     0          
H188     H      0.864200000000     0.100600000000     0.283800000000     0          
C189     C      0.874400000000     0.084080000000     0.339260000000     0          
H190     H      0.905700000000     0.061500000000     0.334600000000     0          
O191     O      0.810200000000     0.224470000000     0.312850000000     0          
H192     H      0.822600000000     0.248200000000     0.307100000000     0          
O193     O      0.573080000000     0.460100000000     0.398460000000     0          
O194     O      0.636200000000     0.423080000000     0.441870000000     0          
C195     C      0.617300000000     0.431700000000     0.408000000000     0          
C196     C      0.645900000000     0.406390000000     0.376140000000     0          
C197     C      0.723100000000     0.293810000000     0.281480000000     0          
C198     C      0.723900000000     0.336170000000     0.282080000000     0          
C199     C      0.690900000000     0.373430000000     0.382340000000     0          
H200     H      0.705600000000     0.366800000000     0.407600000000     0          
C201     C      0.715100000000     0.349890000000     0.352260000000     0          
H202     H      0.744700000000     0.326700000000     0.357200000000     0          
C203     C      0.696600000000     0.359730000000     0.315070000000     0          
C204     C      0.650500000000     0.392680000000     0.309020000000     0          
H205     H      0.635800000000     0.399400000000     0.283800000000     0          
C206     C      0.625600000000     0.415920000000     0.339260000000     0          
H207     H      0.594300000000     0.438500000000     0.334600000000     0          
O208     O      0.573080000000     0.960100000000     0.898460000000     0          
O209     O      0.636200000000     0.923080000000     0.941870000000     0          
C210     C      0.617300000000     0.931700000000     0.908000000000     0          
C211     C      0.645900000000     0.906390000000     0.876140000000     0          
C212     C      0.723100000000     0.793810000000     0.781480000000     0          
C213     C      0.723900000000     0.836170000000     0.782080000000     0          
C214     C      0.690900000000     0.873430000000     0.882340000000     0          
H215     H      0.705600000000     0.866800000000     0.907600000000     0          
C216     C      0.715100000000     0.849890000000     0.852260000000     0          
H217     H      0.744700000000     0.826700000000     0.857200000000     0          
C218     C      0.696600000000     0.859730000000     0.815070000000     0          
C219     C      0.650500000000     0.892680000000     0.809020000000     0          
H220     H      0.635800000000     0.899400000000     0.783800000000     0          
C221     C      0.625600000000     0.915920000000     0.839260000000     0          
H222     H      0.594300000000     0.938500000000     0.834600000000     0          
O223     O      0.073080000000     0.460100000000     0.898460000000     0          
O224     O      0.136200000000     0.423080000000     0.941870000000     0          
C225     C      0.117300000000     0.431700000000     0.908000000000     0          
C226     C      0.145900000000     0.406390000000     0.876140000000     0          
C227     C      0.223100000000     0.293810000000     0.781480000000     0          
C228     C      0.223900000000     0.336170000000     0.782080000000     0          
C229     C      0.190900000000     0.373430000000     0.882340000000     0          
H230     H      0.205600000000     0.366800000000     0.907600000000     0          
C231     C      0.215100000000     0.349890000000     0.852260000000     0          
H232     H      0.244700000000     0.326700000000     0.857200000000     0          
C233     C      0.196600000000     0.359730000000     0.815070000000     0          
C234     C      0.150500000000     0.392680000000     0.809020000000     0          
H235     H      0.135800000000     0.399400000000     0.783800000000     0          
C236     C      0.125600000000     0.415920000000     0.839260000000     0          
H237     H      0.094300000000     0.438500000000     0.834600000000     0          
O238     O      0.189800000000     0.275530000000     0.812850000000     0          
H239     H      0.177400000000     0.251800000000     0.807100000000     0          
O240     O      0.073080000000     0.960100000000     0.398460000000     0          
O241     O      0.136200000000     0.923080000000     0.441870000000     0          
C242     C      0.117300000000     0.931700000000     0.408000000000     0          
C243     C      0.145900000000     0.906390000000     0.376140000000     0          
C244     C      0.223100000000     0.793810000000     0.281480000000     0          
C245     C      0.223900000000     0.836170000000     0.282080000000     0          
C246     C      0.190900000000     0.873430000000     0.382340000000     0          
H247     H      0.205600000000     0.866800000000     0.407600000000     0          
C248     C      0.215100000000     0.849890000000     0.352260000000     0          
H249     H      0.244700000000     0.826700000000     0.357200000000     0          
C250     C      0.196600000000     0.859730000000     0.315070000000     0          
C251     C      0.150500000000     0.892680000000     0.309020000000     0          
H252     H      0.135800000000     0.899400000000     0.283800000000     0          
C253     C      0.125600000000     0.915920000000     0.339260000000     0          
H254     H      0.094300000000     0.938500000000     0.334600000000     0          
O255     O      0.189800000000     0.775530000000     0.312850000000     0          
H256     H      0.177400000000     0.751800000000     0.307100000000     0          
O257     O      0.426920000000     0.460100000000     0.398460000000     0          
O258     O      0.363800000000     0.423080000000     0.441870000000     0          
C259     C      0.382700000000     0.431700000000     0.408000000000     0          
C260     C      0.354100000000     0.406390000000     0.376140000000     0          
C261     C      0.276900000000     0.293810000000     0.281480000000     0          
C262     C      0.276100000000     0.336170000000     0.282080000000     0          
C263     C      0.309100000000     0.373430000000     0.382340000000     0          
H264     H      0.294400000000     0.366800000000     0.407600000000     0          
C265     C      0.284900000000     0.349890000000     0.352260000000     0          
H266     H      0.255300000000     0.326700000000     0.357200000000     0          
C267     C      0.303400000000     0.359730000000     0.315070000000     0          
C268     C      0.349500000000     0.392680000000     0.309020000000     0          
H269     H      0.364200000000     0.399400000000     0.283800000000     0          
C270     C      0.374400000000     0.415920000000     0.339260000000     0          
H271     H      0.405700000000     0.438500000000     0.334600000000     0          
O272     O      0.310200000000     0.275530000000     0.312850000000     0          
H273     H      0.322600000000     0.251800000000     0.307100000000     0          
O274     O      0.426920000000     0.960100000000     0.898460000000     0          
O275     O      0.363800000000     0.923080000000     0.941870000000     0          
C276     C      0.382700000000     0.931700000000     0.908000000000     0          
C277     C      0.354100000000     0.906390000000     0.876140000000     0          
C278     C      0.276900000000     0.793810000000     0.781480000000     0          
C279     C      0.276100000000     0.836170000000     0.782080000000     0          
C280     C      0.309100000000     0.873430000000     0.882340000000     0          
H281     H      0.294400000000     0.866800000000     0.907600000000     0          
C282     C      0.284900000000     0.849890000000     0.852260000000     0          
H283     H      0.255300000000     0.826700000000     0.857200000000     0          
C284     C      0.303400000000     0.859730000000     0.815070000000     0          
C285     C      0.349500000000     0.892680000000     0.809020000000     0          
H286     H      0.364200000000     0.899400000000     0.783800000000     0          
C287     C      0.374400000000     0.915920000000     0.839260000000     0          
H288     H      0.405700000000     0.938500000000     0.834600000000     0          
O289     O      0.926920000000     0.460100000000     0.898460000000     0          
O290     O      0.863800000000     0.423080000000     0.941870000000     0          
C291     C      0.882700000000     0.431700000000     0.908000000000     0          
C292     C      0.854100000000     0.406390000000     0.876140000000     0          
C293     C      0.776900000000     0.293810000000     0.781480000000     0          
C294     C      0.776100000000     0.336170000000     0.782080000000     0          
C295     C      0.809100000000     0.373430000000     0.882340000000     0          
H296     H      0.794400000000     0.366800000000     0.907600000000     0          
C297     C      0.784900000000     0.349890000000     0.852260000000     0          
H298     H      0.755300000000     0.326700000000     0.857200000000     0          
C299     C      0.803400000000     0.359730000000     0.815070000000     0          
C300     C      0.849500000000     0.392680000000     0.809020000000     0          
H301     H      0.864200000000     0.399400000000     0.783800000000     0          
C302     C      0.874400000000     0.415920000000     0.839260000000     0          
H303     H      0.905700000000     0.438500000000     0.834600000000     0          
O304     O      0.810200000000     0.275530000000     0.812850000000     0          
H305     H      0.822600000000     0.251800000000     0.807100000000     0          
O306     O      0.926920000000     0.960100000000     0.398460000000     0          
O307     O      0.863800000000     0.923080000000     0.441870000000     0          
C308     C      0.882700000000     0.931700000000     0.408000000000     0          
C309     C      0.854100000000     0.906390000000     0.376140000000     0          
C310     C      0.776900000000     0.793810000000     0.281480000000     0          
C311     C      0.776100000000     0.836170000000     0.282080000000     0          
C312     C      0.809100000000     0.873430000000     0.382340000000     0          
H313     H      0.794400000000     0.866800000000     0.407600000000     0          
C314     C      0.784900000000     0.849890000000     0.352260000000     0          
H315     H      0.755300000000     0.826700000000     0.357200000000     0          
C316     C      0.803400000000     0.859730000000     0.315070000000     0          
C317     C      0.849500000000     0.892680000000     0.309020000000     0          
H318     H      0.864200000000     0.899400000000     0.283800000000     0          
C319     C      0.874400000000     0.915920000000     0.339260000000     0          
H320     H      0.905700000000     0.938500000000     0.334600000000     0          
O321     O      0.573080000000     0.539900000000     0.398460000000     0          
O322     O      0.636200000000     0.576920000000     0.441870000000     0          
C323     C      0.617300000000     0.568300000000     0.408000000000     0          
C324     C      0.645900000000     0.593610000000     0.376140000000     0          
C325     C      0.723100000000     0.706190000000     0.281480000000     0          
C326     C      0.723900000000     0.663830000000     0.282080000000     0          
C327     C      0.690900000000     0.626570000000     0.382340000000     0          
H328     H      0.705600000000     0.633200000000     0.407600000000     0          
C329     C      0.715100000000     0.650110000000     0.352260000000     0          
H330     H      0.744700000000     0.673300000000     0.357200000000     0          
C331     C      0.696600000000     0.640270000000     0.315070000000     0          
C332     C      0.650500000000     0.607320000000     0.309020000000     0          
H333     H      0.635800000000     0.600600000000     0.283800000000     0          
C334     C      0.625600000000     0.584080000000     0.339260000000     0          
H335     H      0.594300000000     0.561500000000     0.334600000000     0          
O336     O      0.689800000000     0.724470000000     0.312850000000     0          
H337     H      0.677400000000     0.748200000000     0.307100000000     0          
O338     O      0.573080000000     0.039900000000     0.898460000000     0          
O339     O      0.636200000000     0.076920000000     0.941870000000     0          
C340     C      0.617300000000     0.068300000000     0.908000000000     0          
C341     C      0.645900000000     0.093610000000     0.876140000000     0          
C342     C      0.723100000000     0.206190000000     0.781480000000     0          
C343     C      0.723900000000     0.163830000000     0.782080000000     0          
C344     C      0.690900000000     0.126570000000     0.882340000000     0          
H345     H      0.705600000000     0.133200000000     0.907600000000     0          
C346     C      0.715100000000     0.150110000000     0.852260000000     0          
H347     H      0.744700000000     0.173300000000     0.857200000000     0          
C348     C      0.696600000000     0.140270000000     0.815070000000     0          
C349     C      0.650500000000     0.107320000000     0.809020000000     0          
H350     H      0.635800000000     0.100600000000     0.783800000000     0          
C351     C      0.625600000000     0.084080000000     0.839260000000     0          
H352     H      0.594300000000     0.061500000000     0.834600000000     0          
O353     O      0.073080000000     0.539900000000     0.898460000000     0          
O354     O      0.136200000000     0.576920000000     0.941870000000     0          
C355     C      0.117300000000     0.568300000000     0.908000000000     0          
C356     C      0.145900000000     0.593610000000     0.876140000000     0          
C357     C      0.223100000000     0.706190000000     0.781480000000     0          
C358     C      0.223900000000     0.663830000000     0.782080000000     0          
C359     C      0.190900000000     0.626570000000     0.882340000000     0          
H360     H      0.205600000000     0.633200000000     0.907600000000     0          
C361     C      0.215100000000     0.650110000000     0.852260000000     0          
H362     H      0.244700000000     0.673300000000     0.857200000000     0          
C363     C      0.196600000000     0.640270000000     0.815070000000     0          
C364     C      0.150500000000     0.607320000000     0.809020000000     0          
H365     H      0.135800000000     0.600600000000     0.783800000000     0          
C366     C      0.125600000000     0.584080000000     0.839260000000     0          
H367     H      0.094300000000     0.561500000000     0.834600000000     0          
O368     O      0.189800000000     0.724470000000     0.812850000000     0          
H369     H      0.177400000000     0.748200000000     0.807100000000     0          
O370     O      0.073080000000     0.039900000000     0.398460000000     0          
O371     O      0.136200000000     0.076920000000     0.441870000000     0          
C372     C      0.117300000000     0.068300000000     0.408000000000     0          
C373     C      0.145900000000     0.093610000000     0.376140000000     0          
C374     C      0.223100000000     0.206190000000     0.281480000000     0          
C375     C      0.223900000000     0.163830000000     0.282080000000     0          
C376     C      0.190900000000     0.126570000000     0.382340000000     0          
H377     H      0.205600000000     0.133200000000     0.407600000000     0          
C378     C      0.215100000000     0.150110000000     0.352260000000     0          
H379     H      0.244700000000     0.173300000000     0.357200000000     0          
C380     C      0.196600000000     0.140270000000     0.315070000000     0          
C381     C      0.150500000000     0.107320000000     0.309020000000     0          
H382     H      0.135800000000     0.100600000000     0.283800000000     0          
C383     C      0.125600000000     0.084080000000     0.339260000000     0          
H384     H      0.094300000000     0.061500000000     0.334600000000     0          
O385     O      0.573080000000     0.460100000000     0.601540000000     0          
O386     O      0.636200000000     0.423080000000     0.558130000000     0          
C387     C      0.617300000000     0.431700000000     0.592000000000     0          
C388     C      0.645900000000     0.406390000000     0.623860000000     0          
C389     C      0.723100000000     0.293810000000     0.718520000000     0          
C390     C      0.723900000000     0.336170000000     0.717920000000     0          
C391     C      0.690900000000     0.373430000000     0.617660000000     0          
H392     H      0.705600000000     0.366800000000     0.592400000000     0          
C393     C      0.715100000000     0.349890000000     0.647740000000     0          
H394     H      0.744700000000     0.326700000000     0.642800000000     0          
C395     C      0.696600000000     0.359730000000     0.684930000000     0          
C396     C      0.650500000000     0.392680000000     0.690980000000     0          
H397     H      0.635800000000     0.399400000000     0.716200000000     0          
C398     C      0.625600000000     0.415920000000     0.660740000000     0          
H399     H      0.594300000000     0.438500000000     0.665400000000     0          
O400     O      0.573080000000     0.960100000000     0.101540000000     0          
O401     O      0.636200000000     0.923080000000     0.058130000000     0          
C402     C      0.617300000000     0.931700000000     0.092000000000     0          
C403     C      0.645900000000     0.906390000000     0.123860000000     0          
C404     C      0.723100000000     0.793810000000     0.218520000000     0          
C405     C      0.723900000000     0.836170000000     0.217920000000     0          
C406     C      0.690900000000     0.873430000000     0.117660000000     0          
H407     H      0.705600000000     0.866800000000     0.092400000000     0          
C408     C      0.715100000000     0.849890000000     0.147740000000     0          
H409     H      0.744700000000     0.826700000000     0.142800000000     0          
C410     C      0.696600000000     0.859730000000     0.184930000000     0          
C411     C      0.650500000000     0.892680000000     0.190980000000     0          
H412     H      0.635800000000     0.899400000000     0.216200000000     0          
C413     C      0.625600000000     0.915920000000     0.160740000000     0          
H414     H      0.594300000000     0.938500000000     0.165400000000     0          
O415     O      0.689800000000     0.775530000000     0.187150000000     0          
H416     H      0.677400000000     0.751800000000     0.192900000000     0          
O417     O      0.073080000000     0.460100000000     0.101540000000     0          
O418     O      0.136200000000     0.423080000000     0.058130000000     0          
C419     C      0.117300000000     0.431700000000     0.092000000000     0          
C420     C      0.145900000000     0.406390000000     0.123860000000     0          
C421     C      0.223100000000     0.293810000000     0.218520000000     0          
C422     C      0.223900000000     0.336170000000     0.217920000000     0          
C423     C      0.190900000000     0.373430000000     0.117660000000     0          
H424     H      0.205600000000     0.366800000000     0.092400000000     0          
C425     C      0.215100000000     0.349890000000     0.147740000000     0          
H426     H      0.244700000000     0.326700000000     0.142800000000     0          
C427     C      0.196600000000     0.359730000000     0.184930000000     0          
C428     C      0.150500000000     0.392680000000     0.190980000000     0          
H429     H      0.135800000000     0.399400000000     0.216200000000     0          
C430     C      0.125600000000     0.415920000000     0.160740000000     0          
H431     H      0.094300000000     0.438500000000     0.165400000000     0          
O432     O      0.073080000000     0.960100000000     0.601540000000     0          
O433     O      0.136200000000     0.923080000000     0.558130000000     0          
C434     C      0.117300000000     0.931700000000     0.592000000000     0          
C435     C      0.145900000000     0.906390000000     0.623860000000     0          
C436     C      0.223100000000     0.793810000000     0.718520000000     0          
C437     C      0.223900000000     0.836170000000     0.717920000000     0          
C438     C      0.190900000000     0.873430000000     0.617660000000     0          
H439     H      0.205600000000     0.866800000000     0.592400000000     0          
C440     C      0.215100000000     0.849890000000     0.647740000000     0          
H441     H      0.244700000000     0.826700000000     0.642800000000     0          
C442     C      0.196600000000     0.859730000000     0.684930000000     0          
C443     C      0.150500000000     0.892680000000     0.690980000000     0          
H444     H      0.135800000000     0.899400000000     0.716200000000     0          
C445     C      0.125600000000     0.915920000000     0.660740000000     0          
H446     H      0.094300000000     0.938500000000     0.665400000000     0          
O447     O      0.189800000000     0.775530000000     0.687150000000     0          
H448     H      0.177400000000     0.751800000000     0.692900000000     0          
O449     O      0.426920000000     0.539900000000     0.601540000000     0          
O450     O      0.363800000000     0.576920000000     0.558130000000     0          
C451     C      0.382700000000     0.568300000000     0.592000000000     0          
C452     C      0.354100000000     0.593610000000     0.623860000000     0          
C453     C      0.276900000000     0.706190000000     0.718520000000     0          
C454     C      0.276100000000     0.663830000000     0.717920000000     0          
C455     C      0.309100000000     0.626570000000     0.617660000000     0          
H456     H      0.294400000000     0.633200000000     0.592400000000     0          
C457     C      0.284900000000     0.650110000000     0.647740000000     0          
H458     H      0.255300000000     0.673300000000     0.642800000000     0          
C459     C      0.303400000000     0.640270000000     0.684930000000     0          
C460     C      0.349500000000     0.607320000000     0.690980000000     0          
H461     H      0.364200000000     0.600600000000     0.716200000000     0          
C462     C      0.374400000000     0.584080000000     0.660740000000     0          
H463     H      0.405700000000     0.561500000000     0.665400000000     0          
O464     O      0.426920000000     0.039900000000     0.101540000000     0          
O465     O      0.363800000000     0.076920000000     0.058130000000     0          
C466     C      0.382700000000     0.068300000000     0.092000000000     0          
C467     C      0.354100000000     0.093610000000     0.123860000000     0          
C468     C      0.276900000000     0.206190000000     0.218520000000     0          
C469     C      0.276100000000     0.163830000000     0.217920000000     0          
C470     C      0.309100000000     0.126570000000     0.117660000000     0          
H471     H      0.294400000000     0.133200000000     0.092400000000     0          
C472     C      0.284900000000     0.150110000000     0.147740000000     0          
H473     H      0.255300000000     0.173300000000     0.142800000000     0          
C474     C      0.303400000000     0.140270000000     0.184930000000     0          
C475     C      0.349500000000     0.107320000000     0.190980000000     0          
H476     H      0.364200000000     0.100600000000     0.216200000000     0          
C477     C      0.374400000000     0.084080000000     0.160740000000     0          
H478     H      0.405700000000     0.061500000000     0.165400000000     0          
O479     O      0.310200000000     0.224470000000     0.187150000000     0          
H480     H      0.322600000000     0.248200000000     0.192900000000     0          
O481     O      0.926920000000     0.539900000000     0.101540000000     0          
O482     O      0.863800000000     0.576920000000     0.058130000000     0          
C483     C      0.882700000000     0.568300000000     0.092000000000     0          
C484     C      0.854100000000     0.593610000000     0.123860000000     0          
C485     C      0.776900000000     0.706190000000     0.218520000000     0          
C486     C      0.776100000000     0.663830000000     0.217920000000     0          
C487     C      0.809100000000     0.626570000000     0.117660000000     0          
H488     H      0.794400000000     0.633200000000     0.092400000000     0          
C489     C      0.784900000000     0.650110000000     0.147740000000     0          
H490     H      0.755300000000     0.673300000000     0.142800000000     0          
C491     C      0.803400000000     0.640270000000     0.184930000000     0          
C492     C      0.849500000000     0.607320000000     0.190980000000     0          
H493     H      0.864200000000     0.600600000000     0.216200000000     0          
C494     C      0.874400000000     0.584080000000     0.160740000000     0          
H495     H      0.905700000000     0.561500000000     0.165400000000     0          
O496     O      0.926920000000     0.039900000000     0.601540000000     0          
O497     O      0.863800000000     0.076920000000     0.558130000000     0          
C498     C      0.882700000000     0.068300000000     0.592000000000     0          
C499     C      0.854100000000     0.093610000000     0.623860000000     0          
C500     C      0.776900000000     0.206190000000     0.718520000000     0          
C501     C      0.776100000000     0.163830000000     0.717920000000     0          
C502     C      0.809100000000     0.126570000000     0.617660000000     0          
H503     H      0.794400000000     0.133200000000     0.592400000000     0          
C504     C      0.784900000000     0.150110000000     0.647740000000     0          
H505     H      0.755300000000     0.173300000000     0.642800000000     0          
C506     C      0.803400000000     0.140270000000     0.684930000000     0          
C507     C      0.849500000000     0.107320000000     0.690980000000     0          
H508     H      0.864200000000     0.100600000000     0.716200000000     0          
C509     C      0.874400000000     0.084080000000     0.660740000000     0          
H510     H      0.905700000000     0.061500000000     0.665400000000     0          
O511     O      0.810200000000     0.224470000000     0.687150000000     0          
H512     H      0.822600000000     0.248200000000     0.692900000000     0          
Zr513    Zr     0.500000000000     0.500000000000     0.569680000000     0          
Zr514    Zr     0.500000000000     0.000000000000     0.069680000000     0          
Zr515    Zr     0.000000000000     0.500000000000     0.069680000000     0          
Zr516    Zr     0.000000000000     0.000000000000     0.569680000000     0          
Zr517    Zr     0.500000000000     0.500000000000     0.430320000000     0          
Zr518    Zr     0.500000000000     0.000000000000     0.930320000000     0          
Zr519    Zr     0.000000000000     0.500000000000     0.930320000000     0          
Zr520    Zr     0.000000000000     0.000000000000     0.430320000000     0          
Zr521    Zr     0.401700000000     0.446280000000     0.500000000000     0          
Zr522    Zr     0.401700000000     0.946280000000     0.000000000000     0          
Zr523    Zr     0.901700000000     0.446280000000     0.000000000000     0          
Zr524    Zr     0.901700000000     0.946280000000     0.500000000000     0          
Zr525    Zr     0.598300000000     0.553720000000     0.500000000000     0          
Zr526    Zr     0.598300000000     0.053720000000     0.000000000000     0          
Zr527    Zr     0.098300000000     0.553720000000     0.000000000000     0          
Zr528    Zr     0.098300000000     0.053720000000     0.500000000000     0          
Zr529    Zr     0.598300000000     0.446280000000     0.500000000000     0          
Zr530    Zr     0.598300000000     0.946280000000     0.000000000000     0          
Zr531    Zr     0.098300000000     0.446280000000     0.000000000000     0          
Zr532    Zr     0.098300000000     0.946280000000     0.500000000000     0          
Zr533    Zr     0.401700000000     0.553720000000     0.500000000000     0          
Zr534    Zr     0.401700000000     0.053720000000     0.000000000000     0          
Zr535    Zr     0.901700000000     0.553720000000     0.000000000000     0          
Zr536    Zr     0.901700000000     0.053720000000     0.500000000000     0          
O537     O      0.398900000000     0.500000000000     0.534290000000     0          
O538     O      0.398900000000     0.000000000000     0.034290000000     0          
O539     O      0.898900000000     0.500000000000     0.034290000000     0          
O540     O      0.898900000000     0.000000000000     0.534290000000     0          
O541     O      0.601100000000     0.500000000000     0.534290000000     0          
O542     O      0.601100000000     0.000000000000     0.034290000000     0          
O543     O      0.101100000000     0.500000000000     0.034290000000     0          
O544     O      0.101100000000     0.000000000000     0.534290000000     0          
O545     O      0.601100000000     0.500000000000     0.465710000000     0          
O546     O      0.601100000000     0.000000000000     0.965710000000     0          
O547     O      0.101100000000     0.500000000000     0.965710000000     0          
O548     O      0.101100000000     0.000000000000     0.465710000000     0          
O549     O      0.398900000000     0.500000000000     0.465710000000     0          
O550     O      0.398900000000     0.000000000000     0.965710000000     0          
O551     O      0.898900000000     0.500000000000     0.965710000000     0          
O552     O      0.898900000000     0.000000000000     0.465710000000     0          
O553     O      0.500000000000     0.445760000000     0.534450000000     0          
O554     O      0.500000000000     0.945760000000     0.034450000000     0          
O555     O      0.000000000000     0.445760000000     0.034450000000     0          
O556     O      0.000000000000     0.945760000000     0.534450000000     0          
O557     O      0.500000000000     0.554240000000     0.534450000000     0          
O558     O      0.500000000000     0.054240000000     0.034450000000     0          
O559     O      0.000000000000     0.554240000000     0.034450000000     0          
O560     O      0.000000000000     0.054240000000     0.534450000000     0          
O561     O      0.500000000000     0.445760000000     0.465550000000     0          
O562     O      0.500000000000     0.945760000000     0.965550000000     0          
O563     O      0.000000000000     0.445760000000     0.965550000000     0          
O564     O      0.000000000000     0.945760000000     0.465550000000     0          
O565     O      0.500000000000     0.554240000000     0.465550000000     0          
O566     O      0.500000000000     0.054240000000     0.965550000000     0          
O567     O      0.000000000000     0.554240000000     0.965550000000     0          
O568     O      0.000000000000     0.054240000000     0.465550000000     0          
C569     C      0.750000000000     0.727690000000     0.750000000000     0          
C570     C      0.750000000000     0.644030000000     0.750000000000     0          
H571     H      0.750000000000     0.615300000000     0.750000000000     0          
C572     C      0.750000000000     0.227690000000     0.250000000000     0          
C573     C      0.750000000000     0.144030000000     0.250000000000     0          
H574     H      0.750000000000     0.115300000000     0.250000000000     0          
C575     C      0.250000000000     0.272310000000     0.750000000000     0          
C576     C      0.250000000000     0.355970000000     0.750000000000     0          
H577     H      0.250000000000     0.384700000000     0.750000000000     0          
C578     C      0.250000000000     0.772310000000     0.250000000000     0          
C579     C      0.250000000000     0.855970000000     0.250000000000     0          
H580     H      0.250000000000     0.884700000000     0.250000000000     0          
C581     C      0.250000000000     0.727690000000     0.250000000000     0          
C582     C      0.250000000000     0.644030000000     0.250000000000     0          
H583     H      0.250000000000     0.615300000000     0.250000000000     0          
C584     C      0.250000000000     0.227690000000     0.750000000000     0          
C585     C      0.250000000000     0.144030000000     0.750000000000     0          
H586     H      0.250000000000     0.115300000000     0.750000000000     0          
C587     C      0.750000000000     0.272310000000     0.250000000000     0          
C588     C      0.750000000000     0.355970000000     0.250000000000     0          
H589     H      0.750000000000     0.384700000000     0.250000000000     0          
C590     C      0.750000000000     0.772310000000     0.750000000000     0          
C591     C      0.750000000000     0.855970000000     0.750000000000     0          
H592     H      0.750000000000     0.884700000000     0.750000000000     0          
C593     C      0.250000000000     0.272310000000     0.250000000000     0          
C594     C      0.250000000000     0.355970000000     0.250000000000     0          
H595     H      0.250000000000     0.384700000000     0.250000000000     0          
C596     C      0.250000000000     0.772310000000     0.750000000000     0          
C597     C      0.250000000000     0.855970000000     0.750000000000     0          
H598     H      0.250000000000     0.884700000000     0.750000000000     0          
C599     C      0.750000000000     0.727690000000     0.250000000000     0          
C600     C      0.750000000000     0.644030000000     0.250000000000     0          
H601     H      0.750000000000     0.615300000000     0.250000000000     0          
C602     C      0.750000000000     0.227690000000     0.750000000000     0          
C603     C      0.750000000000     0.144030000000     0.750000000000     0          
H604     H      0.750000000000     0.115300000000     0.750000000000     0          
C605     C      0.750000000000     0.272310000000     0.750000000000     0          
C606     C      0.750000000000     0.355970000000     0.750000000000     0          
H607     H      0.750000000000     0.384700000000     0.750000000000     0          
C608     C      0.750000000000     0.772310000000     0.250000000000     0          
C609     C      0.750000000000     0.855970000000     0.250000000000     0          
H610     H      0.750000000000     0.884700000000     0.250000000000     0          
C611     C      0.250000000000     0.727690000000     0.750000000000     0          
C612     C      0.250000000000     0.644030000000     0.750000000000     0          
H613     H      0.250000000000     0.615300000000     0.750000000000     0          
C614     C      0.250000000000     0.227690000000     0.250000000000     0          
C615     C      0.250000000000     0.144030000000     0.250000000000     0          
H616     H      0.250000000000     0.115300000000     0.250000000000     0          
H617     H      0.700260000000     0.723690000000     0.693070000000     0          
H618     H      0.700260000000     0.776310000000     0.806930000000     0          
H619     H      0.299740000000     0.776310000000     0.806930000000     0          
H620     H      0.299740000000     0.723690000000     0.693070000000     0          
H621     H      0.799740000000     0.776310000000     0.306930000000     0          
H622     H      0.799740000000     0.723690000000     0.193070000000     0          
H623     H      0.299740000000     0.776310000000     0.193070000000     0          
H624     H      0.299740000000     0.723690000000     0.306930000000     0          
H625     H      0.700260000000     0.223690000000     0.193070000000     0          
H626     H      0.700260000000     0.276310000000     0.306930000000     0          
H627     H      0.200260000000     0.223690000000     0.306930000000     0          
H628     H      0.200260000000     0.276310000000     0.193070000000     0          
H629     H      0.700260000000     0.223690000000     0.806930000000     0          
H630     H      0.700260000000     0.276310000000     0.693070000000     0          
H631     H      0.299740000000     0.276310000000     0.693070000000     0          
H632     H      0.299740000000     0.223690000000     0.806930000000     0          


