data_GINTEF

_audit_creation_method RASPA-1.0
_audit_creation_date 2020-11-2
_audit_author_name 'Rocio Bueno-Perez'

_cell_length_a    17.723
_cell_length_b    32.705
_cell_length_c    34.67
_cell_angle_alpha 90
_cell_angle_beta  90
_cell_angle_gamma 90
_cell_volume      20095.8

_symmetry_cell_setting          orthorhombic
_symmetry_space_group_name_Hall 'P 1'
_symmetry_space_group_name_H-M  'P 1'
_symmetry_Int_Tables_number     1

_symmetry_equiv_pos_as_xyz 'x,y,z'

loop_
_atom_site_label
_atom_site_type_symbol
_atom_site_fract_x
_atom_site_fract_y
_atom_site_fract_z
_atom_site_charge
C1       C      0.120700000000     0.153700000000     0.593000000000     0          
C2       C      0.152600000000     0.130400000000     0.626800000000     0          
C3       C      0.204800000000     0.100700000000     0.622100000000     0          
H1       H      0.224000000000     0.094800000000     0.597100000000     0          
C4       C      0.229400000000     0.079500000000     0.653000000000     0          
H2       H      0.261800000000     0.056600000000     0.649900000000     0          
C5       C      0.204400000000     0.092800000000     0.692500000000     0          
C6       C      0.158800000000     0.124000000000     0.695400000000     0          
H3       H      0.149000000000     0.135100000000     0.720200000000     0          
C7       C      0.123900000000     0.141600000000     0.663400000000     0          
H4       H      0.083000000000     0.160100000000     0.666000000000     0          
C8       C      0.243000000000     0.075300000000     0.727500000000     0          
C9       C      0.256100000000     0.034300000000     0.736300000000     0          
C10      C      0.285500000000     0.021100000000     0.771300000000     0          
C11      C      0.310800000000     0.051400000000     0.799000000000     0          
H5       H      0.341600000000     0.044300000000     0.820400000000     0          
C12      C      0.287600000000     0.090900000000     0.792700000000     0          
C13      C      0.264100000000     0.101900000000     0.756900000000     0          
H6       H      0.262000000000     0.130300000000     0.751400000000     0          
C14      C      0.314000000000     0.122000000000     0.823700000000     0          
C15      C      0.296300000000     0.114600000000     0.860300000000     0          
H7       H      0.269300000000     0.090800000000     0.867600000000     0          
C16      C      0.319700000000     0.144100000000     0.887900000000     0          
H8       H      0.307700000000     0.139400000000     0.914200000000     0          
C17      C      0.356100000000     0.176600000000     0.879300000000     0          
C18      C      0.371100000000     0.185900000000     0.839800000000     0          
H9       H      0.397200000000     0.210100000000     0.832700000000     0          
C19      C      0.345900000000     0.157800000000     0.811500000000     0          
H10      H      0.351000000000     0.163600000000     0.784800000000     0          
C20      C      0.382100000000     0.209700000000     0.906600000000     0          
O5       O      0.079800000000     0.182300000000     0.601600000000     0          
O6       O      0.141500000000     0.143800000000     0.558800000000     0          
O7       O      0.427500000000     0.237400000000     0.898400000000     0          
O8       O      0.355300000000     0.201700000000     0.942700000000     0          
O10      O      0.895200000000     0.221200000000     0.534900000000     0          
N1       N      0.227700000000     0.000000000000     0.712900000000     0          
H11      H      0.201500000000     0.000000000000     0.691400000000     0          
O1       O      0.000000000000     0.165600000000     0.533500000000     0          
O3       O      0.000000000000     0.274300000000     0.532100000000     0          
Zr2      Zr     0.000000000000     0.222150000000     0.570000000000     0          
Zr1      Zr     0.899330000000     0.166900000000     0.500000000000     0          
Zr3      Zr     0.899770000000     0.275840000000     0.500000000000     0          
C1       C      0.879300000000     0.846300000000     0.593000000000     0          
C2       C      0.847400000000     0.869600000000     0.626800000000     0          
C3       C      0.795200000000     0.899300000000     0.622100000000     0          
H1       H      0.776000000000     0.905200000000     0.597100000000     0          
C4       C      0.770600000000     0.920500000000     0.653000000000     0          
H2       H      0.738200000000     0.943400000000     0.649900000000     0          
C5       C      0.795600000000     0.907200000000     0.692500000000     0          
C6       C      0.841200000000     0.876000000000     0.695400000000     0          
H3       H      0.851000000000     0.864900000000     0.720200000000     0          
C7       C      0.876100000000     0.858400000000     0.663400000000     0          
H4       H      0.917000000000     0.839900000000     0.666000000000     0          
C8       C      0.757000000000     0.924700000000     0.727500000000     0          
C9       C      0.743900000000     0.965700000000     0.736300000000     0          
C10      C      0.714500000000     0.978900000000     0.771300000000     0          
C11      C      0.689200000000     0.948600000000     0.799000000000     0          
H5       H      0.658400000000     0.955700000000     0.820400000000     0          
C12      C      0.712400000000     0.909100000000     0.792700000000     0          
C13      C      0.735900000000     0.898100000000     0.756900000000     0          
H6       H      0.738000000000     0.869700000000     0.751400000000     0          
C14      C      0.686000000000     0.878000000000     0.823700000000     0          
C15      C      0.703700000000     0.885400000000     0.860300000000     0          
H7       H      0.730700000000     0.909200000000     0.867600000000     0          
C16      C      0.680300000000     0.855900000000     0.887900000000     0          
H8       H      0.692300000000     0.860600000000     0.914200000000     0          
C17      C      0.643900000000     0.823400000000     0.879300000000     0          
C18      C      0.628900000000     0.814100000000     0.839800000000     0          
H9       H      0.602800000000     0.789900000000     0.832700000000     0          
C19      C      0.654100000000     0.842200000000     0.811500000000     0          
H10      H      0.649000000000     0.836400000000     0.784800000000     0          
C20      C      0.617900000000     0.790300000000     0.906600000000     0          
O5       O      0.920200000000     0.817700000000     0.601600000000     0          
O6       O      0.858500000000     0.856200000000     0.558800000000     0          
O7       O      0.572500000000     0.762600000000     0.898400000000     0          
O8       O      0.644700000000     0.798300000000     0.942700000000     0          
O10      O      0.104800000000     0.778800000000     0.534900000000     0          
N1       N      0.772300000000     0.000000000000     0.712900000000     0          
H11      H      0.798500000000     0.000000000000     0.691400000000     0          
O1       O      0.000000000000     0.834400000000     0.533500000000     0          
O3       O      0.000000000000     0.725700000000     0.532100000000     0          
Zr2      Zr     0.000000000000     0.777850000000     0.570000000000     0          
Zr1      Zr     0.100670000000     0.833100000000     0.500000000000     0          
Zr3      Zr     0.100230000000     0.724160000000     0.500000000000     0          
C1       C      0.120700000000     0.846300000000     0.407000000000     0          
C2       C      0.152600000000     0.869600000000     0.373200000000     0          
C3       C      0.204800000000     0.899300000000     0.377900000000     0          
H1       H      0.224000000000     0.905200000000     0.402900000000     0          
C4       C      0.229400000000     0.920500000000     0.347000000000     0          
H2       H      0.261800000000     0.943400000000     0.350100000000     0          
C5       C      0.204400000000     0.907200000000     0.307500000000     0          
C6       C      0.158800000000     0.876000000000     0.304600000000     0          
H3       H      0.149000000000     0.864900000000     0.279800000000     0          
C7       C      0.123900000000     0.858400000000     0.336600000000     0          
H4       H      0.083000000000     0.839900000000     0.334000000000     0          
C8       C      0.243000000000     0.924700000000     0.272500000000     0          
C9       C      0.256100000000     0.965700000000     0.263700000000     0          
C10      C      0.285500000000     0.978900000000     0.228700000000     0          
C11      C      0.310800000000     0.948600000000     0.201000000000     0          
H5       H      0.341600000000     0.955700000000     0.179600000000     0          
C12      C      0.287600000000     0.909100000000     0.207300000000     0          
C13      C      0.264100000000     0.898100000000     0.243100000000     0          
H6       H      0.262000000000     0.869700000000     0.248600000000     0          
C14      C      0.314000000000     0.878000000000     0.176300000000     0          
C15      C      0.296300000000     0.885400000000     0.139700000000     0          
H7       H      0.269300000000     0.909200000000     0.132400000000     0          
C16      C      0.319700000000     0.855900000000     0.112100000000     0          
H8       H      0.307700000000     0.860600000000     0.085800000000     0          
C17      C      0.356100000000     0.823400000000     0.120700000000     0          
C18      C      0.371100000000     0.814100000000     0.160200000000     0          
H9       H      0.397200000000     0.789900000000     0.167300000000     0          
C19      C      0.345900000000     0.842200000000     0.188500000000     0          
H10      H      0.351000000000     0.836400000000     0.215200000000     0          
C20      C      0.382100000000     0.790300000000     0.093400000000     0          
O5       O      0.079800000000     0.817700000000     0.398400000000     0          
O6       O      0.141500000000     0.856200000000     0.441200000000     0          
O7       O      0.427500000000     0.762600000000     0.101600000000     0          
O8       O      0.355300000000     0.798300000000     0.057300000000     0          
O10      O      0.895200000000     0.778800000000     0.465100000000     0          
N1       N      0.227700000000     0.000000000000     0.287100000000     0          
H11      H      0.201500000000     0.000000000000     0.308600000000     0          
O1       O      0.000000000000     0.834400000000     0.466500000000     0          
O3       O      0.000000000000     0.725700000000     0.467900000000     0          
Zr2      Zr     0.000000000000     0.777850000000     0.430000000000     0          
Zr1      Zr     0.899330000000     0.833100000000     0.500000000000     0          
Zr3      Zr     0.899770000000     0.724160000000     0.500000000000     0          
C1       C      0.879300000000     0.153700000000     0.407000000000     0          
C2       C      0.847400000000     0.130400000000     0.373200000000     0          
C3       C      0.795200000000     0.100700000000     0.377900000000     0          
H1       H      0.776000000000     0.094800000000     0.402900000000     0          
C4       C      0.770600000000     0.079500000000     0.347000000000     0          
H2       H      0.738200000000     0.056600000000     0.350100000000     0          
C5       C      0.795600000000     0.092800000000     0.307500000000     0          
C6       C      0.841200000000     0.124000000000     0.304600000000     0          
H3       H      0.851000000000     0.135100000000     0.279800000000     0          
C7       C      0.876100000000     0.141600000000     0.336600000000     0          
H4       H      0.917000000000     0.160100000000     0.334000000000     0          
C8       C      0.757000000000     0.075300000000     0.272500000000     0          
C9       C      0.743900000000     0.034300000000     0.263700000000     0          
C10      C      0.714500000000     0.021100000000     0.228700000000     0          
C11      C      0.689200000000     0.051400000000     0.201000000000     0          
H5       H      0.658400000000     0.044300000000     0.179600000000     0          
C12      C      0.712400000000     0.090900000000     0.207300000000     0          
C13      C      0.735900000000     0.101900000000     0.243100000000     0          
H6       H      0.738000000000     0.130300000000     0.248600000000     0          
C14      C      0.686000000000     0.122000000000     0.176300000000     0          
C15      C      0.703700000000     0.114600000000     0.139700000000     0          
H7       H      0.730700000000     0.090800000000     0.132400000000     0          
C16      C      0.680300000000     0.144100000000     0.112100000000     0          
H8       H      0.692300000000     0.139400000000     0.085800000000     0          
C17      C      0.643900000000     0.176600000000     0.120700000000     0          
C18      C      0.628900000000     0.185900000000     0.160200000000     0          
H9       H      0.602800000000     0.210100000000     0.167300000000     0          
C19      C      0.654100000000     0.157800000000     0.188500000000     0          
H10      H      0.649000000000     0.163600000000     0.215200000000     0          
C20      C      0.617900000000     0.209700000000     0.093400000000     0          
O5       O      0.920200000000     0.182300000000     0.398400000000     0          
O6       O      0.858500000000     0.143800000000     0.441200000000     0          
O7       O      0.572500000000     0.237400000000     0.101600000000     0          
O8       O      0.644700000000     0.201700000000     0.057300000000     0          
O10      O      0.104800000000     0.221200000000     0.465100000000     0          
N1       N      0.772300000000     0.000000000000     0.287100000000     0          
H11      H      0.798500000000     0.000000000000     0.308600000000     0          
O1       O      0.000000000000     0.165600000000     0.466500000000     0          
O3       O      0.000000000000     0.274300000000     0.467900000000     0          
Zr2      Zr     0.000000000000     0.222150000000     0.430000000000     0          
Zr1      Zr     0.100670000000     0.166900000000     0.500000000000     0          
Zr3      Zr     0.100230000000     0.275840000000     0.500000000000     0          
C1       C      0.879300000000     0.846300000000     0.407000000000     0          
C2       C      0.847400000000     0.869600000000     0.373200000000     0          
C3       C      0.795200000000     0.899300000000     0.377900000000     0          
H1       H      0.776000000000     0.905200000000     0.402900000000     0          
C4       C      0.770600000000     0.920500000000     0.347000000000     0          
H2       H      0.738200000000     0.943400000000     0.350100000000     0          
C5       C      0.795600000000     0.907200000000     0.307500000000     0          
C6       C      0.841200000000     0.876000000000     0.304600000000     0          
H3       H      0.851000000000     0.864900000000     0.279800000000     0          
C7       C      0.876100000000     0.858400000000     0.336600000000     0          
H4       H      0.917000000000     0.839900000000     0.334000000000     0          
C8       C      0.757000000000     0.924700000000     0.272500000000     0          
C9       C      0.743900000000     0.965700000000     0.263700000000     0          
C10      C      0.714500000000     0.978900000000     0.228700000000     0          
C11      C      0.689200000000     0.948600000000     0.201000000000     0          
H5       H      0.658400000000     0.955700000000     0.179600000000     0          
C12      C      0.712400000000     0.909100000000     0.207300000000     0          
C13      C      0.735900000000     0.898100000000     0.243100000000     0          
H6       H      0.738000000000     0.869700000000     0.248600000000     0          
C14      C      0.686000000000     0.878000000000     0.176300000000     0          
C15      C      0.703700000000     0.885400000000     0.139700000000     0          
H7       H      0.730700000000     0.909200000000     0.132400000000     0          
C16      C      0.680300000000     0.855900000000     0.112100000000     0          
H8       H      0.692300000000     0.860600000000     0.085800000000     0          
C17      C      0.643900000000     0.823400000000     0.120700000000     0          
C18      C      0.628900000000     0.814100000000     0.160200000000     0          
H9       H      0.602800000000     0.789900000000     0.167300000000     0          
C19      C      0.654100000000     0.842200000000     0.188500000000     0          
H10      H      0.649000000000     0.836400000000     0.215200000000     0          
C20      C      0.617900000000     0.790300000000     0.093400000000     0          
O5       O      0.920200000000     0.817700000000     0.398400000000     0          
O6       O      0.858500000000     0.856200000000     0.441200000000     0          
O7       O      0.572500000000     0.762600000000     0.101600000000     0          
O8       O      0.644700000000     0.798300000000     0.057300000000     0          
O10      O      0.104800000000     0.778800000000     0.465100000000     0          
C1       C      0.120700000000     0.153700000000     0.407000000000     0          
C2       C      0.152600000000     0.130400000000     0.373200000000     0          
C3       C      0.204800000000     0.100700000000     0.377900000000     0          
H1       H      0.224000000000     0.094800000000     0.402900000000     0          
C4       C      0.229400000000     0.079500000000     0.347000000000     0          
H2       H      0.261800000000     0.056600000000     0.350100000000     0          
C5       C      0.204400000000     0.092800000000     0.307500000000     0          
C6       C      0.158800000000     0.124000000000     0.304600000000     0          
H3       H      0.149000000000     0.135100000000     0.279800000000     0          
C7       C      0.123900000000     0.141600000000     0.336600000000     0          
H4       H      0.083000000000     0.160100000000     0.334000000000     0          
C8       C      0.243000000000     0.075300000000     0.272500000000     0          
C9       C      0.256100000000     0.034300000000     0.263700000000     0          
C10      C      0.285500000000     0.021100000000     0.228700000000     0          
C11      C      0.310800000000     0.051400000000     0.201000000000     0          
H5       H      0.341600000000     0.044300000000     0.179600000000     0          
C12      C      0.287600000000     0.090900000000     0.207300000000     0          
C13      C      0.264100000000     0.101900000000     0.243100000000     0          
H6       H      0.262000000000     0.130300000000     0.248600000000     0          
C14      C      0.314000000000     0.122000000000     0.176300000000     0          
C15      C      0.296300000000     0.114600000000     0.139700000000     0          
H7       H      0.269300000000     0.090800000000     0.132400000000     0          
C16      C      0.319700000000     0.144100000000     0.112100000000     0          
H8       H      0.307700000000     0.139400000000     0.085800000000     0          
C17      C      0.356100000000     0.176600000000     0.120700000000     0          
C18      C      0.371100000000     0.185900000000     0.160200000000     0          
H9       H      0.397200000000     0.210100000000     0.167300000000     0          
C19      C      0.345900000000     0.157800000000     0.188500000000     0          
H10      H      0.351000000000     0.163600000000     0.215200000000     0          
C20      C      0.382100000000     0.209700000000     0.093400000000     0          
O5       O      0.079800000000     0.182300000000     0.398400000000     0          
O6       O      0.141500000000     0.143800000000     0.441200000000     0          
O7       O      0.427500000000     0.237400000000     0.101600000000     0          
O8       O      0.355300000000     0.201700000000     0.057300000000     0          
O10      O      0.895200000000     0.221200000000     0.465100000000     0          
C1       C      0.879300000000     0.153700000000     0.593000000000     0          
C2       C      0.847400000000     0.130400000000     0.626800000000     0          
C3       C      0.795200000000     0.100700000000     0.622100000000     0          
H1       H      0.776000000000     0.094800000000     0.597100000000     0          
C4       C      0.770600000000     0.079500000000     0.653000000000     0          
H2       H      0.738200000000     0.056600000000     0.649900000000     0          
C5       C      0.795600000000     0.092800000000     0.692500000000     0          
C6       C      0.841200000000     0.124000000000     0.695400000000     0          
H3       H      0.851000000000     0.135100000000     0.720200000000     0          
C7       C      0.876100000000     0.141600000000     0.663400000000     0          
H4       H      0.917000000000     0.160100000000     0.666000000000     0          
C8       C      0.757000000000     0.075300000000     0.727500000000     0          
C9       C      0.743900000000     0.034300000000     0.736300000000     0          
C10      C      0.714500000000     0.021100000000     0.771300000000     0          
C11      C      0.689200000000     0.051400000000     0.799000000000     0          
H5       H      0.658400000000     0.044300000000     0.820400000000     0          
C12      C      0.712400000000     0.090900000000     0.792700000000     0          
C13      C      0.735900000000     0.101900000000     0.756900000000     0          
H6       H      0.738000000000     0.130300000000     0.751400000000     0          
C14      C      0.686000000000     0.122000000000     0.823700000000     0          
C15      C      0.703700000000     0.114600000000     0.860300000000     0          
H7       H      0.730700000000     0.090800000000     0.867600000000     0          
C16      C      0.680300000000     0.144100000000     0.887900000000     0          
H8       H      0.692300000000     0.139400000000     0.914200000000     0          
C17      C      0.643900000000     0.176600000000     0.879300000000     0          
C18      C      0.628900000000     0.185900000000     0.839800000000     0          
H9       H      0.602800000000     0.210100000000     0.832700000000     0          
C19      C      0.654100000000     0.157800000000     0.811500000000     0          
H10      H      0.649000000000     0.163600000000     0.784800000000     0          
C20      C      0.617900000000     0.209700000000     0.906600000000     0          
O5       O      0.920200000000     0.182300000000     0.601600000000     0          
O6       O      0.858500000000     0.143800000000     0.558800000000     0          
O7       O      0.572500000000     0.237400000000     0.898400000000     0          
O8       O      0.644700000000     0.201700000000     0.942700000000     0          
O10      O      0.104800000000     0.221200000000     0.534900000000     0          
C1       C      0.120700000000     0.846300000000     0.593000000000     0          
C2       C      0.152600000000     0.869600000000     0.626800000000     0          
C3       C      0.204800000000     0.899300000000     0.622100000000     0          
H1       H      0.224000000000     0.905200000000     0.597100000000     0          
C4       C      0.229400000000     0.920500000000     0.653000000000     0          
H2       H      0.261800000000     0.943400000000     0.649900000000     0          
C5       C      0.204400000000     0.907200000000     0.692500000000     0          
C6       C      0.158800000000     0.876000000000     0.695400000000     0          
H3       H      0.149000000000     0.864900000000     0.720200000000     0          
C7       C      0.123900000000     0.858400000000     0.663400000000     0          
H4       H      0.083000000000     0.839900000000     0.666000000000     0          
C8       C      0.243000000000     0.924700000000     0.727500000000     0          
C9       C      0.256100000000     0.965700000000     0.736300000000     0          
C10      C      0.285500000000     0.978900000000     0.771300000000     0          
C11      C      0.310800000000     0.948600000000     0.799000000000     0          
H5       H      0.341600000000     0.955700000000     0.820400000000     0          
C12      C      0.287600000000     0.909100000000     0.792700000000     0          
C13      C      0.264100000000     0.898100000000     0.756900000000     0          
H6       H      0.262000000000     0.869700000000     0.751400000000     0          
C14      C      0.314000000000     0.878000000000     0.823700000000     0          
C15      C      0.296300000000     0.885400000000     0.860300000000     0          
H7       H      0.269300000000     0.909200000000     0.867600000000     0          
C16      C      0.319700000000     0.855900000000     0.887900000000     0          
H8       H      0.307700000000     0.860600000000     0.914200000000     0          
C17      C      0.356100000000     0.823400000000     0.879300000000     0          
C18      C      0.371100000000     0.814100000000     0.839800000000     0          
H9       H      0.397200000000     0.789900000000     0.832700000000     0          
C19      C      0.345900000000     0.842200000000     0.811500000000     0          
H10      H      0.351000000000     0.836400000000     0.784800000000     0          
C20      C      0.382100000000     0.790300000000     0.906600000000     0          
O5       O      0.079800000000     0.817700000000     0.601600000000     0          
O6       O      0.141500000000     0.856200000000     0.558800000000     0          
O7       O      0.427500000000     0.762600000000     0.898400000000     0          
O8       O      0.355300000000     0.798300000000     0.942700000000     0          
O10      O      0.895200000000     0.778800000000     0.534900000000     0          
C1       C      0.620700000000     0.653700000000     0.093000000000     0          
C2       C      0.652600000000     0.630400000000     0.126800000000     0          
C3       C      0.704800000000     0.600700000000     0.122100000000     0          
H1       H      0.724000000000     0.594800000000     0.097100000000     0          
C4       C      0.729400000000     0.579500000000     0.153000000000     0          
H2       H      0.761800000000     0.556600000000     0.149900000000     0          
C5       C      0.704400000000     0.592800000000     0.192500000000     0          
C6       C      0.658800000000     0.624000000000     0.195400000000     0          
H3       H      0.649000000000     0.635100000000     0.220200000000     0          
C7       C      0.623900000000     0.641600000000     0.163400000000     0          
H4       H      0.583000000000     0.660100000000     0.166000000000     0          
C8       C      0.743000000000     0.575300000000     0.227500000000     0          
C9       C      0.756100000000     0.534300000000     0.236300000000     0          
C10      C      0.785500000000     0.521100000000     0.271300000000     0          
C11      C      0.810800000000     0.551400000000     0.299000000000     0          
H5       H      0.841600000000     0.544300000000     0.320400000000     0          
C12      C      0.787600000000     0.590900000000     0.292700000000     0          
C13      C      0.764100000000     0.601900000000     0.256900000000     0          
H6       H      0.762000000000     0.630300000000     0.251400000000     0          
C14      C      0.814000000000     0.622000000000     0.323700000000     0          
C15      C      0.796300000000     0.614600000000     0.360300000000     0          
H7       H      0.769300000000     0.590800000000     0.367600000000     0          
C16      C      0.819700000000     0.644100000000     0.387900000000     0          
H8       H      0.807700000000     0.639400000000     0.414200000000     0          
C17      C      0.856100000000     0.676600000000     0.379300000000     0          
C18      C      0.871100000000     0.685900000000     0.339800000000     0          
H9       H      0.897200000000     0.710100000000     0.332700000000     0          
C19      C      0.845900000000     0.657800000000     0.311500000000     0          
H10      H      0.851000000000     0.663600000000     0.284800000000     0          
C20      C      0.882100000000     0.709700000000     0.406600000000     0          
O5       O      0.579800000000     0.682300000000     0.101600000000     0          
O6       O      0.641500000000     0.643800000000     0.058800000000     0          
O7       O      0.927500000000     0.737400000000     0.398400000000     0          
O8       O      0.855300000000     0.701700000000     0.442700000000     0          
O10      O      0.395200000000     0.721200000000     0.034900000000     0          
N1       N      0.727700000000     0.500000000000     0.212900000000     0          
H11      H      0.701500000000     0.500000000000     0.191400000000     0          
O1       O      0.500000000000     0.665600000000     0.033500000000     0          
O3       O      0.500000000000     0.774300000000     0.032100000000     0          
Zr2      Zr     0.500000000000     0.722150000000     0.070000000000     0          
Zr1      Zr     0.399330000000     0.666900000000     0.000000000000     0          
Zr3      Zr     0.399770000000     0.775840000000     0.000000000000     0          
C1       C      0.379300000000     0.346300000000     0.093000000000     0          
C2       C      0.347400000000     0.369600000000     0.126800000000     0          
C3       C      0.295200000000     0.399300000000     0.122100000000     0          
H1       H      0.276000000000     0.405200000000     0.097100000000     0          
C4       C      0.270600000000     0.420500000000     0.153000000000     0          
H2       H      0.238200000000     0.443400000000     0.149900000000     0          
C5       C      0.295600000000     0.407200000000     0.192500000000     0          
C6       C      0.341200000000     0.376000000000     0.195400000000     0          
H3       H      0.351000000000     0.364900000000     0.220200000000     0          
C7       C      0.376100000000     0.358400000000     0.163400000000     0          
H4       H      0.417000000000     0.339900000000     0.166000000000     0          
C8       C      0.257000000000     0.424700000000     0.227500000000     0          
C9       C      0.243900000000     0.465700000000     0.236300000000     0          
C10      C      0.214500000000     0.478900000000     0.271300000000     0          
C11      C      0.189200000000     0.448600000000     0.299000000000     0          
H5       H      0.158400000000     0.455700000000     0.320400000000     0          
C12      C      0.212400000000     0.409100000000     0.292700000000     0          
C13      C      0.235900000000     0.398100000000     0.256900000000     0          
H6       H      0.238000000000     0.369700000000     0.251400000000     0          
C14      C      0.186000000000     0.378000000000     0.323700000000     0          
C15      C      0.203700000000     0.385400000000     0.360300000000     0          
H7       H      0.230700000000     0.409200000000     0.367600000000     0          
C16      C      0.180300000000     0.355900000000     0.387900000000     0          
H8       H      0.192300000000     0.360600000000     0.414200000000     0          
C17      C      0.143900000000     0.323400000000     0.379300000000     0          
C18      C      0.128900000000     0.314100000000     0.339800000000     0          
H9       H      0.102800000000     0.289900000000     0.332700000000     0          
C19      C      0.154100000000     0.342200000000     0.311500000000     0          
H10      H      0.149000000000     0.336400000000     0.284800000000     0          
C20      C      0.117900000000     0.290300000000     0.406600000000     0          
O5       O      0.420200000000     0.317700000000     0.101600000000     0          
O6       O      0.358500000000     0.356200000000     0.058800000000     0          
O7       O      0.072500000000     0.262600000000     0.398400000000     0          
O8       O      0.144700000000     0.298300000000     0.442700000000     0          
O10      O      0.604800000000     0.278800000000     0.034900000000     0          
N1       N      0.272300000000     0.500000000000     0.212900000000     0          
H11      H      0.298500000000     0.500000000000     0.191400000000     0          
O1       O      0.500000000000     0.334400000000     0.033500000000     0          
O3       O      0.500000000000     0.225700000000     0.032100000000     0          
Zr2      Zr     0.500000000000     0.277850000000     0.070000000000     0          
Zr1      Zr     0.600670000000     0.333100000000     0.000000000000     0          
Zr3      Zr     0.600230000000     0.224160000000     0.000000000000     0          
C1       C      0.620700000000     0.346300000000     0.907000000000     0          
C2       C      0.652600000000     0.369600000000     0.873200000000     0          
C3       C      0.704800000000     0.399300000000     0.877900000000     0          
H1       H      0.724000000000     0.405200000000     0.902900000000     0          
C4       C      0.729400000000     0.420500000000     0.847000000000     0          
H2       H      0.761800000000     0.443400000000     0.850100000000     0          
C5       C      0.704400000000     0.407200000000     0.807500000000     0          
C6       C      0.658800000000     0.376000000000     0.804600000000     0          
H3       H      0.649000000000     0.364900000000     0.779800000000     0          
C7       C      0.623900000000     0.358400000000     0.836600000000     0          
H4       H      0.583000000000     0.339900000000     0.834000000000     0          
C8       C      0.743000000000     0.424700000000     0.772500000000     0          
C9       C      0.756100000000     0.465700000000     0.763700000000     0          
C10      C      0.785500000000     0.478900000000     0.728700000000     0          
C11      C      0.810800000000     0.448600000000     0.701000000000     0          
H5       H      0.841600000000     0.455700000000     0.679600000000     0          
C12      C      0.787600000000     0.409100000000     0.707300000000     0          
C13      C      0.764100000000     0.398100000000     0.743100000000     0          
H6       H      0.762000000000     0.369700000000     0.748600000000     0          
C14      C      0.814000000000     0.378000000000     0.676300000000     0          
C15      C      0.796300000000     0.385400000000     0.639700000000     0          
H7       H      0.769300000000     0.409200000000     0.632400000000     0          
C16      C      0.819700000000     0.355900000000     0.612100000000     0          
H8       H      0.807700000000     0.360600000000     0.585800000000     0          
C17      C      0.856100000000     0.323400000000     0.620700000000     0          
C18      C      0.871100000000     0.314100000000     0.660200000000     0          
H9       H      0.897200000000     0.289900000000     0.667300000000     0          
C19      C      0.845900000000     0.342200000000     0.688500000000     0          
H10      H      0.851000000000     0.336400000000     0.715200000000     0          
C20      C      0.882100000000     0.290300000000     0.593400000000     0          
O5       O      0.579800000000     0.317700000000     0.898400000000     0          
O6       O      0.641500000000     0.356200000000     0.941200000000     0          
O7       O      0.927500000000     0.262600000000     0.601600000000     0          
O8       O      0.855300000000     0.298300000000     0.557300000000     0          
O10      O      0.395200000000     0.278800000000     0.965100000000     0          
N1       N      0.727700000000     0.500000000000     0.787100000000     0          
H11      H      0.701500000000     0.500000000000     0.808600000000     0          
O1       O      0.500000000000     0.334400000000     0.966500000000     0          
O3       O      0.500000000000     0.225700000000     0.967900000000     0          
Zr2      Zr     0.500000000000     0.277850000000     0.930000000000     0          
Zr1      Zr     0.399330000000     0.333100000000     0.000000000000     0          
Zr3      Zr     0.399770000000     0.224160000000     0.000000000000     0          
C1       C      0.379300000000     0.653700000000     0.907000000000     0          
C2       C      0.347400000000     0.630400000000     0.873200000000     0          
C3       C      0.295200000000     0.600700000000     0.877900000000     0          
H1       H      0.276000000000     0.594800000000     0.902900000000     0          
C4       C      0.270600000000     0.579500000000     0.847000000000     0          
H2       H      0.238200000000     0.556600000000     0.850100000000     0          
C5       C      0.295600000000     0.592800000000     0.807500000000     0          
C6       C      0.341200000000     0.624000000000     0.804600000000     0          
H3       H      0.351000000000     0.635100000000     0.779800000000     0          
C7       C      0.376100000000     0.641600000000     0.836600000000     0          
H4       H      0.417000000000     0.660100000000     0.834000000000     0          
C8       C      0.257000000000     0.575300000000     0.772500000000     0          
C9       C      0.243900000000     0.534300000000     0.763700000000     0          
C10      C      0.214500000000     0.521100000000     0.728700000000     0          
C11      C      0.189200000000     0.551400000000     0.701000000000     0          
H5       H      0.158400000000     0.544300000000     0.679600000000     0          
C12      C      0.212400000000     0.590900000000     0.707300000000     0          
C13      C      0.235900000000     0.601900000000     0.743100000000     0          
H6       H      0.238000000000     0.630300000000     0.748600000000     0          
C14      C      0.186000000000     0.622000000000     0.676300000000     0          
C15      C      0.203700000000     0.614600000000     0.639700000000     0          
H7       H      0.230700000000     0.590800000000     0.632400000000     0          
C16      C      0.180300000000     0.644100000000     0.612100000000     0          
H8       H      0.192300000000     0.639400000000     0.585800000000     0          
C17      C      0.143900000000     0.676600000000     0.620700000000     0          
C18      C      0.128900000000     0.685900000000     0.660200000000     0          
H9       H      0.102800000000     0.710100000000     0.667300000000     0          
C19      C      0.154100000000     0.657800000000     0.688500000000     0          
H10      H      0.149000000000     0.663600000000     0.715200000000     0          
C20      C      0.117900000000     0.709700000000     0.593400000000     0          
O5       O      0.420200000000     0.682300000000     0.898400000000     0          
O6       O      0.358500000000     0.643800000000     0.941200000000     0          
O7       O      0.072500000000     0.737400000000     0.601600000000     0          
O8       O      0.144700000000     0.701700000000     0.557300000000     0          
O10      O      0.604800000000     0.721200000000     0.965100000000     0          
N1       N      0.272300000000     0.500000000000     0.787100000000     0          
H11      H      0.298500000000     0.500000000000     0.808600000000     0          
O1       O      0.500000000000     0.665600000000     0.966500000000     0          
O3       O      0.500000000000     0.774300000000     0.967900000000     0          
Zr2      Zr     0.500000000000     0.722150000000     0.930000000000     0          
Zr1      Zr     0.600670000000     0.666900000000     0.000000000000     0          
Zr3      Zr     0.600230000000     0.775840000000     0.000000000000     0          
C1       C      0.379300000000     0.346300000000     0.907000000000     0          
C2       C      0.347400000000     0.369600000000     0.873200000000     0          
C3       C      0.295200000000     0.399300000000     0.877900000000     0          
H1       H      0.276000000000     0.405200000000     0.902900000000     0          
C4       C      0.270600000000     0.420500000000     0.847000000000     0          
H2       H      0.238200000000     0.443400000000     0.850100000000     0          
C5       C      0.295600000000     0.407200000000     0.807500000000     0          
C6       C      0.341200000000     0.376000000000     0.804600000000     0          
H3       H      0.351000000000     0.364900000000     0.779800000000     0          
C7       C      0.376100000000     0.358400000000     0.836600000000     0          
H4       H      0.417000000000     0.339900000000     0.834000000000     0          
C8       C      0.257000000000     0.424700000000     0.772500000000     0          
C9       C      0.243900000000     0.465700000000     0.763700000000     0          
C10      C      0.214500000000     0.478900000000     0.728700000000     0          
C11      C      0.189200000000     0.448600000000     0.701000000000     0          
H5       H      0.158400000000     0.455700000000     0.679600000000     0          
C12      C      0.212400000000     0.409100000000     0.707300000000     0          
C13      C      0.235900000000     0.398100000000     0.743100000000     0          
H6       H      0.238000000000     0.369700000000     0.748600000000     0          
C14      C      0.186000000000     0.378000000000     0.676300000000     0          
C15      C      0.203700000000     0.385400000000     0.639700000000     0          
H7       H      0.230700000000     0.409200000000     0.632400000000     0          
C16      C      0.180300000000     0.355900000000     0.612100000000     0          
H8       H      0.192300000000     0.360600000000     0.585800000000     0          
C17      C      0.143900000000     0.323400000000     0.620700000000     0          
C18      C      0.128900000000     0.314100000000     0.660200000000     0          
H9       H      0.102800000000     0.289900000000     0.667300000000     0          
C19      C      0.154100000000     0.342200000000     0.688500000000     0          
H10      H      0.149000000000     0.336400000000     0.715200000000     0          
C20      C      0.117900000000     0.290300000000     0.593400000000     0          
O5       O      0.420200000000     0.317700000000     0.898400000000     0          
O6       O      0.358500000000     0.356200000000     0.941200000000     0          
O7       O      0.072500000000     0.262600000000     0.601600000000     0          
O8       O      0.144700000000     0.298300000000     0.557300000000     0          
O10      O      0.604800000000     0.278800000000     0.965100000000     0          
C1       C      0.620700000000     0.653700000000     0.907000000000     0          
C2       C      0.652600000000     0.630400000000     0.873200000000     0          
C3       C      0.704800000000     0.600700000000     0.877900000000     0          
H1       H      0.724000000000     0.594800000000     0.902900000000     0          
C4       C      0.729400000000     0.579500000000     0.847000000000     0          
H2       H      0.761800000000     0.556600000000     0.850100000000     0          
C5       C      0.704400000000     0.592800000000     0.807500000000     0          
C6       C      0.658800000000     0.624000000000     0.804600000000     0          
H3       H      0.649000000000     0.635100000000     0.779800000000     0          
C7       C      0.623900000000     0.641600000000     0.836600000000     0          
H4       H      0.583000000000     0.660100000000     0.834000000000     0          
C8       C      0.743000000000     0.575300000000     0.772500000000     0          
C9       C      0.756100000000     0.534300000000     0.763700000000     0          
C10      C      0.785500000000     0.521100000000     0.728700000000     0          
C11      C      0.810800000000     0.551400000000     0.701000000000     0          
H5       H      0.841600000000     0.544300000000     0.679600000000     0          
C12      C      0.787600000000     0.590900000000     0.707300000000     0          
C13      C      0.764100000000     0.601900000000     0.743100000000     0          
H6       H      0.762000000000     0.630300000000     0.748600000000     0          
C14      C      0.814000000000     0.622000000000     0.676300000000     0          
C15      C      0.796300000000     0.614600000000     0.639700000000     0          
H7       H      0.769300000000     0.590800000000     0.632400000000     0          
C16      C      0.819700000000     0.644100000000     0.612100000000     0          
H8       H      0.807700000000     0.639400000000     0.585800000000     0          
C17      C      0.856100000000     0.676600000000     0.620700000000     0          
C18      C      0.871100000000     0.685900000000     0.660200000000     0          
H9       H      0.897200000000     0.710100000000     0.667300000000     0          
C19      C      0.845900000000     0.657800000000     0.688500000000     0          
H10      H      0.851000000000     0.663600000000     0.715200000000     0          
C20      C      0.882100000000     0.709700000000     0.593400000000     0          
O5       O      0.579800000000     0.682300000000     0.898400000000     0          
O6       O      0.641500000000     0.643800000000     0.941200000000     0          
O7       O      0.927500000000     0.737400000000     0.601600000000     0          
O8       O      0.855300000000     0.701700000000     0.557300000000     0          
O10      O      0.395200000000     0.721200000000     0.965100000000     0          
C1       C      0.379300000000     0.653700000000     0.093000000000     0          
C2       C      0.347400000000     0.630400000000     0.126800000000     0          
C3       C      0.295200000000     0.600700000000     0.122100000000     0          
H1       H      0.276000000000     0.594800000000     0.097100000000     0          
C4       C      0.270600000000     0.579500000000     0.153000000000     0          
H2       H      0.238200000000     0.556600000000     0.149900000000     0          
C5       C      0.295600000000     0.592800000000     0.192500000000     0          
C6       C      0.341200000000     0.624000000000     0.195400000000     0          
H3       H      0.351000000000     0.635100000000     0.220200000000     0          
C7       C      0.376100000000     0.641600000000     0.163400000000     0          
H4       H      0.417000000000     0.660100000000     0.166000000000     0          
C8       C      0.257000000000     0.575300000000     0.227500000000     0          
C9       C      0.243900000000     0.534300000000     0.236300000000     0          
C10      C      0.214500000000     0.521100000000     0.271300000000     0          
C11      C      0.189200000000     0.551400000000     0.299000000000     0          
H5       H      0.158400000000     0.544300000000     0.320400000000     0          
C12      C      0.212400000000     0.590900000000     0.292700000000     0          
C13      C      0.235900000000     0.601900000000     0.256900000000     0          
H6       H      0.238000000000     0.630300000000     0.251400000000     0          
C14      C      0.186000000000     0.622000000000     0.323700000000     0          
C15      C      0.203700000000     0.614600000000     0.360300000000     0          
H7       H      0.230700000000     0.590800000000     0.367600000000     0          
C16      C      0.180300000000     0.644100000000     0.387900000000     0          
H8       H      0.192300000000     0.639400000000     0.414200000000     0          
C17      C      0.143900000000     0.676600000000     0.379300000000     0          
C18      C      0.128900000000     0.685900000000     0.339800000000     0          
H9       H      0.102800000000     0.710100000000     0.332700000000     0          
C19      C      0.154100000000     0.657800000000     0.311500000000     0          
H10      H      0.149000000000     0.663600000000     0.284800000000     0          
C20      C      0.117900000000     0.709700000000     0.406600000000     0          
O5       O      0.420200000000     0.682300000000     0.101600000000     0          
O6       O      0.358500000000     0.643800000000     0.058800000000     0          
O7       O      0.072500000000     0.737400000000     0.398400000000     0          
O8       O      0.144700000000     0.701700000000     0.442700000000     0          
O10      O      0.604800000000     0.721200000000     0.034900000000     0          
C1       C      0.620700000000     0.346300000000     0.093000000000     0          
C2       C      0.652600000000     0.369600000000     0.126800000000     0          
C3       C      0.704800000000     0.399300000000     0.122100000000     0          
H1       H      0.724000000000     0.405200000000     0.097100000000     0          
C4       C      0.729400000000     0.420500000000     0.153000000000     0          
H2       H      0.761800000000     0.443400000000     0.149900000000     0          
C5       C      0.704400000000     0.407200000000     0.192500000000     0          
C6       C      0.658800000000     0.376000000000     0.195400000000     0          
H3       H      0.649000000000     0.364900000000     0.220200000000     0          
C7       C      0.623900000000     0.358400000000     0.163400000000     0          
H4       H      0.583000000000     0.339900000000     0.166000000000     0          
C8       C      0.743000000000     0.424700000000     0.227500000000     0          
C9       C      0.756100000000     0.465700000000     0.236300000000     0          
C10      C      0.785500000000     0.478900000000     0.271300000000     0          
C11      C      0.810800000000     0.448600000000     0.299000000000     0          
H5       H      0.841600000000     0.455700000000     0.320400000000     0          
C12      C      0.787600000000     0.409100000000     0.292700000000     0          
C13      C      0.764100000000     0.398100000000     0.256900000000     0          
H6       H      0.762000000000     0.369700000000     0.251400000000     0          
C14      C      0.814000000000     0.378000000000     0.323700000000     0          
C15      C      0.796300000000     0.385400000000     0.360300000000     0          
H7       H      0.769300000000     0.409200000000     0.367600000000     0          
C16      C      0.819700000000     0.355900000000     0.387900000000     0          
H8       H      0.807700000000     0.360600000000     0.414200000000     0          
C17      C      0.856100000000     0.323400000000     0.379300000000     0          
C18      C      0.871100000000     0.314100000000     0.339800000000     0          
H9       H      0.897200000000     0.289900000000     0.332700000000     0          
C19      C      0.845900000000     0.342200000000     0.311500000000     0          
H10      H      0.851000000000     0.336400000000     0.284800000000     0          
C20      C      0.882100000000     0.290300000000     0.406600000000     0          
O5       O      0.579800000000     0.317700000000     0.101600000000     0          
O6       O      0.641500000000     0.356200000000     0.058800000000     0          
O7       O      0.927500000000     0.262600000000     0.398400000000     0          
O8       O      0.855300000000     0.298300000000     0.442700000000     0          
O10      O      0.395200000000     0.278800000000     0.034900000000     0          


