data_GINTUV

_audit_creation_method RASPA-1.0
_audit_creation_date 2020-11-2
_audit_author_name 'Rocio Bueno-Perez'

_cell_length_a    21.5401
_cell_length_b    33.1625
_cell_length_c    31.9996
_cell_angle_alpha 90
_cell_angle_beta  90
_cell_angle_gamma 90
_cell_volume      22858.1

_symmetry_cell_setting          triclinic
_symmetry_space_group_name_Hall 'P 1'
_symmetry_space_group_name_H-M  'P 1'
_symmetry_Int_Tables_number     1

_symmetry_equiv_pos_as_xyz 'x,y,z'

loop_
_atom_site_label
_atom_site_type_symbol
_atom_site_fract_x
_atom_site_fract_y
_atom_site_fract_z
_atom_site_charge
O1       O      0.385720000000     0.060520000000     0.356210000000     0          
O2       O      0.438020000000     0.107410000000     0.319520000000     0          
O3       O      0.113960000000     0.439960000000     0.299450000000     0          
O4       O      0.062800000000     0.391960000000     0.264040000000     0          
O5       O      0.418910000000     0.963920000000     0.277710000000     0          
C6       C      0.398440000000     0.096410000000     0.346390000000     0          
C7       C      0.362490000000     0.129420000000     0.366940000000     0          
C8       C      0.376100000000     0.169170000000     0.357200000000     0          
H9       H      0.408090000000     0.175170000000     0.337730000000     0          
C10      C      0.343000000000     0.200210000000     0.375890000000     0          
H11      H      0.352540000000     0.227400000000     0.369120000000     0          
C12      C      0.296400000000     0.192020000000     0.404190000000     0          
C13      C      0.284000000000     0.152450000000     0.413810000000     0          
H14      H      0.252300000000     0.146300000000     0.433450000000     0          
C15      C      0.317100000000     0.121290000000     0.395260000000     0          
H16      H      0.308030000000     0.094110000000     0.402400000000     0          
C17      C      0.260300000000     0.226120000000     0.422010000000     0          
C18      C      0.232800000000     0.253070000000     0.394430000000     0          
H19      H      0.238870000000     0.248730000000     0.365370000000     0          
C20      C      0.196700000000     0.286320000000     0.406650000000     0          
C21      C      0.185600000000     0.291940000000     0.448970000000     0          
H22      H      0.160630000000     0.313800000000     0.458280000000     0          
C23      C      0.211500000000     0.264960000000     0.477720000000     0          
C24      C      0.250100000000     0.232810000000     0.464540000000     0          
C25      C      0.173700000000     0.315560000000     0.375850000000     0          
C26      C      0.146600000000     0.304010000000     0.338490000000     0          
H27      H      0.144990000000     0.276200000000     0.331440000000     0          
C28      C      0.121900000000     0.332060000000     0.311240000000     0          
H29      H      0.101690000000     0.323400000000     0.286430000000     0          
C30      C      0.126600000000     0.372690000000     0.320120000000     0          
C31      C      0.154000000000     0.384750000000     0.356760000000     0          
H32      H      0.157540000000     0.412670000000     0.362940000000     0          
C33      C      0.176500000000     0.356430000000     0.384820000000     0          
H34      H      0.193990000000     0.365150000000     0.410520000000     0          
C35      C      0.098800000000     0.403720000000     0.292070000000     0          
H36      H      0.318660000000     0.162440000000     0.487800000000     0          
H37      H      0.343070000000     0.185130000000     0.528760000000     0          
H38      H      0.361050000000     0.201850000000     0.483440000000     0          
O39      O      0.885720000000     0.560520000000     0.856210000000     0          
O40      O      0.938020000000     0.607410000000     0.819520000000     0          
O41      O      0.613960000000     0.939960000000     0.799450000000     0          
O42      O      0.562800000000     0.891960000000     0.764040000000     0          
O43      O      0.918910000000     0.463920000000     0.777710000000     0          
C44      C      0.898440000000     0.596410000000     0.846390000000     0          
C45      C      0.862490000000     0.629420000000     0.866940000000     0          
C46      C      0.876100000000     0.669170000000     0.857200000000     0          
H47      H      0.908090000000     0.675170000000     0.837730000000     0          
C48      C      0.843000000000     0.700210000000     0.875890000000     0          
H49      H      0.852540000000     0.727400000000     0.869120000000     0          
C50      C      0.796400000000     0.692020000000     0.904190000000     0          
C51      C      0.784000000000     0.652450000000     0.913810000000     0          
H52      H      0.752300000000     0.646300000000     0.933450000000     0          
C53      C      0.817100000000     0.621290000000     0.895260000000     0          
H54      H      0.808030000000     0.594110000000     0.902400000000     0          
C55      C      0.760300000000     0.726120000000     0.922010000000     0          
C56      C      0.732800000000     0.753070000000     0.894430000000     0          
H57      H      0.738870000000     0.748730000000     0.865370000000     0          
C58      C      0.696700000000     0.786320000000     0.906650000000     0          
C59      C      0.685600000000     0.791940000000     0.948970000000     0          
H60      H      0.660630000000     0.813800000000     0.958280000000     0          
C61      C      0.711500000000     0.764960000000     0.977720000000     0          
C62      C      0.750100000000     0.732810000000     0.964540000000     0          
C63      C      0.673700000000     0.815560000000     0.875850000000     0          
C64      C      0.646600000000     0.804010000000     0.838490000000     0          
H65      H      0.644990000000     0.776200000000     0.831440000000     0          
C66      C      0.621900000000     0.832060000000     0.811240000000     0          
H67      H      0.601690000000     0.823400000000     0.786430000000     0          
C68      C      0.626600000000     0.872690000000     0.820120000000     0          
C69      C      0.654000000000     0.884750000000     0.856760000000     0          
H70      H      0.657540000000     0.912670000000     0.862940000000     0          
C71      C      0.676500000000     0.856430000000     0.884820000000     0          
H72      H      0.693990000000     0.865150000000     0.910520000000     0          
C73      C      0.598800000000     0.903720000000     0.792070000000     0          
H74      H      0.818660000000     0.662440000000     0.987800000000     0          
H75      H      0.843070000000     0.685130000000     0.028760000000     0          
H76      H      0.861050000000     0.701850000000     0.983440000000     0          
O77      O      0.614280000000     0.939480000000     0.356210000000     0          
O78      O      0.561980000000     0.892590000000     0.319520000000     0          
O79      O      0.886040000000     0.560040000000     0.299450000000     0          
O80      O      0.937200000000     0.608040000000     0.264040000000     0          
O81      O      0.581090000000     0.036080000000     0.277710000000     0          
C82      C      0.601560000000     0.903590000000     0.346390000000     0          
C83      C      0.637510000000     0.870580000000     0.366940000000     0          
C84      C      0.623900000000     0.830830000000     0.357200000000     0          
H85      H      0.591910000000     0.824830000000     0.337730000000     0          
C86      C      0.657000000000     0.799790000000     0.375890000000     0          
H87      H      0.647460000000     0.772600000000     0.369120000000     0          
C88      C      0.703600000000     0.807980000000     0.404190000000     0          
C89      C      0.716000000000     0.847550000000     0.413810000000     0          
H90      H      0.747700000000     0.853700000000     0.433450000000     0          
C91      C      0.682900000000     0.878710000000     0.395260000000     0          
H92      H      0.691970000000     0.905890000000     0.402400000000     0          
C93      C      0.739700000000     0.773880000000     0.422010000000     0          
C94      C      0.767200000000     0.746930000000     0.394430000000     0          
H95      H      0.761130000000     0.751270000000     0.365370000000     0          
C96      C      0.803300000000     0.713680000000     0.406650000000     0          
C97      C      0.814400000000     0.708060000000     0.448970000000     0          
H98      H      0.839370000000     0.686200000000     0.458280000000     0          
C99      C      0.788500000000     0.735040000000     0.477720000000     0          
C100     C      0.749900000000     0.767190000000     0.464540000000     0          
C101     C      0.826300000000     0.684440000000     0.375850000000     0          
C102     C      0.853400000000     0.695990000000     0.338490000000     0          
H103     H      0.855010000000     0.723800000000     0.331440000000     0          
C104     C      0.878100000000     0.667940000000     0.311240000000     0          
H105     H      0.898310000000     0.676600000000     0.286430000000     0          
C106     C      0.873400000000     0.627310000000     0.320120000000     0          
C107     C      0.846000000000     0.615250000000     0.356760000000     0          
H108     H      0.842460000000     0.587330000000     0.362940000000     0          
C109     C      0.823500000000     0.643570000000     0.384820000000     0          
H110     H      0.806010000000     0.634850000000     0.410520000000     0          
C111     C      0.901200000000     0.596280000000     0.292070000000     0          
O112     O      0.114280000000     0.439480000000     0.856210000000     0          
O113     O      0.061980000000     0.392590000000     0.819520000000     0          
O114     O      0.386040000000     0.060040000000     0.799450000000     0          
O115     O      0.437200000000     0.108040000000     0.764040000000     0          
O116     O      0.081090000000     0.536080000000     0.777710000000     0          
C117     C      0.101560000000     0.403590000000     0.846390000000     0          
C118     C      0.137510000000     0.370580000000     0.866940000000     0          
C119     C      0.123900000000     0.330830000000     0.857200000000     0          
H120     H      0.091910000000     0.324830000000     0.837730000000     0          
C121     C      0.157000000000     0.299790000000     0.875890000000     0          
H122     H      0.147460000000     0.272600000000     0.869120000000     0          
C123     C      0.203600000000     0.307980000000     0.904190000000     0          
C124     C      0.216000000000     0.347550000000     0.913810000000     0          
H125     H      0.247700000000     0.353700000000     0.933450000000     0          
C126     C      0.182900000000     0.378710000000     0.895260000000     0          
H127     H      0.191970000000     0.405890000000     0.902400000000     0          
C128     C      0.239700000000     0.273880000000     0.922010000000     0          
C129     C      0.267200000000     0.246930000000     0.894430000000     0          
H130     H      0.261130000000     0.251270000000     0.865370000000     0          
C131     C      0.303300000000     0.213680000000     0.906650000000     0          
C132     C      0.314400000000     0.208060000000     0.948970000000     0          
H133     H      0.339370000000     0.186200000000     0.958280000000     0          
C134     C      0.288500000000     0.235040000000     0.977720000000     0          
C135     C      0.249900000000     0.267190000000     0.964540000000     0          
C136     C      0.326300000000     0.184440000000     0.875850000000     0          
C137     C      0.353400000000     0.195990000000     0.838490000000     0          
H138     H      0.355010000000     0.223800000000     0.831440000000     0          
C139     C      0.378100000000     0.167940000000     0.811240000000     0          
H140     H      0.398310000000     0.176600000000     0.786430000000     0          
C141     C      0.373400000000     0.127310000000     0.820120000000     0          
C142     C      0.346000000000     0.115250000000     0.856760000000     0          
H143     H      0.342460000000     0.087330000000     0.862940000000     0          
C144     C      0.323500000000     0.143570000000     0.884820000000     0          
H145     H      0.306010000000     0.134850000000     0.910520000000     0          
C146     C      0.401200000000     0.096280000000     0.792070000000     0          
H147     H      0.181340000000     0.337560000000     0.987800000000     0          
H148     H      0.156930000000     0.314870000000     0.028760000000     0          
H149     H      0.138950000000     0.298150000000     0.983440000000     0          
O150     O      0.614280000000     0.060520000000     0.643790000000     0          
O151     O      0.561980000000     0.107410000000     0.680480000000     0          
O152     O      0.886040000000     0.439960000000     0.700550000000     0          
O153     O      0.937200000000     0.391960000000     0.735960000000     0          
O154     O      0.581090000000     0.963920000000     0.722290000000     0          
C155     C      0.601560000000     0.096410000000     0.653610000000     0          
C156     C      0.637510000000     0.129420000000     0.633060000000     0          
C157     C      0.623900000000     0.169170000000     0.642800000000     0          
H158     H      0.591910000000     0.175170000000     0.662270000000     0          
C159     C      0.657000000000     0.200210000000     0.624110000000     0          
H160     H      0.647460000000     0.227400000000     0.630880000000     0          
C161     C      0.703600000000     0.192020000000     0.595810000000     0          
C162     C      0.716000000000     0.152450000000     0.586190000000     0          
H163     H      0.747700000000     0.146300000000     0.566550000000     0          
C164     C      0.682900000000     0.121290000000     0.604740000000     0          
H165     H      0.691970000000     0.094110000000     0.597600000000     0          
C166     C      0.739700000000     0.226120000000     0.577990000000     0          
C167     C      0.767200000000     0.253070000000     0.605570000000     0          
H168     H      0.761130000000     0.248730000000     0.634630000000     0          
C169     C      0.803300000000     0.286320000000     0.593350000000     0          
C170     C      0.814400000000     0.291940000000     0.551030000000     0          
H171     H      0.839370000000     0.313800000000     0.541720000000     0          
C172     C      0.788500000000     0.264960000000     0.522280000000     0          
C173     C      0.749900000000     0.232810000000     0.535460000000     0          
C174     C      0.826300000000     0.315560000000     0.624150000000     0          
C175     C      0.853400000000     0.304010000000     0.661510000000     0          
H176     H      0.855010000000     0.276200000000     0.668560000000     0          
C177     C      0.878100000000     0.332060000000     0.688760000000     0          
H178     H      0.898310000000     0.323400000000     0.713570000000     0          
C179     C      0.873400000000     0.372690000000     0.679880000000     0          
C180     C      0.846000000000     0.384750000000     0.643240000000     0          
H181     H      0.842460000000     0.412670000000     0.637060000000     0          
C182     C      0.823500000000     0.356430000000     0.615180000000     0          
H183     H      0.806010000000     0.365150000000     0.589480000000     0          
C184     C      0.901200000000     0.403720000000     0.707930000000     0          
H185     H      0.681340000000     0.162440000000     0.512200000000     0          
H186     H      0.656930000000     0.185130000000     0.471240000000     0          
H187     H      0.638950000000     0.201850000000     0.516560000000     0          
O188     O      0.114280000000     0.560520000000     0.143790000000     0          
O189     O      0.061980000000     0.607410000000     0.180480000000     0          
O190     O      0.386040000000     0.939960000000     0.200550000000     0          
O191     O      0.437200000000     0.891960000000     0.235960000000     0          
O192     O      0.081090000000     0.463920000000     0.222290000000     0          
C193     C      0.101560000000     0.596410000000     0.153610000000     0          
C194     C      0.137510000000     0.629420000000     0.133060000000     0          
C195     C      0.123900000000     0.669170000000     0.142800000000     0          
H196     H      0.091910000000     0.675170000000     0.162270000000     0          
C197     C      0.157000000000     0.700210000000     0.124110000000     0          
H198     H      0.147460000000     0.727400000000     0.130880000000     0          
C199     C      0.203600000000     0.692020000000     0.095810000000     0          
C200     C      0.216000000000     0.652450000000     0.086190000000     0          
H201     H      0.247700000000     0.646300000000     0.066550000000     0          
C202     C      0.182900000000     0.621290000000     0.104740000000     0          
H203     H      0.191970000000     0.594110000000     0.097600000000     0          
C204     C      0.239700000000     0.726120000000     0.077990000000     0          
C205     C      0.267200000000     0.753070000000     0.105570000000     0          
H206     H      0.261130000000     0.748730000000     0.134630000000     0          
C207     C      0.303300000000     0.786320000000     0.093350000000     0          
C208     C      0.314400000000     0.791940000000     0.051030000000     0          
H209     H      0.339370000000     0.813800000000     0.041720000000     0          
C210     C      0.288500000000     0.764960000000     0.022280000000     0          
C211     C      0.249900000000     0.732810000000     0.035460000000     0          
C212     C      0.326300000000     0.815560000000     0.124150000000     0          
C213     C      0.353400000000     0.804010000000     0.161510000000     0          
H214     H      0.355010000000     0.776200000000     0.168560000000     0          
C215     C      0.378100000000     0.832060000000     0.188760000000     0          
H216     H      0.398310000000     0.823400000000     0.213570000000     0          
C217     C      0.373400000000     0.872690000000     0.179880000000     0          
C218     C      0.346000000000     0.884750000000     0.143240000000     0          
H219     H      0.342460000000     0.912670000000     0.137060000000     0          
C220     C      0.323500000000     0.856430000000     0.115180000000     0          
H221     H      0.306010000000     0.865150000000     0.089480000000     0          
C222     C      0.401200000000     0.903720000000     0.207930000000     0          
O223     O      0.385720000000     0.939480000000     0.643790000000     0          
O224     O      0.438020000000     0.892590000000     0.680480000000     0          
O225     O      0.113960000000     0.560040000000     0.700550000000     0          
O226     O      0.062800000000     0.608040000000     0.735960000000     0          
O227     O      0.418910000000     0.036080000000     0.722290000000     0          
C228     C      0.398440000000     0.903590000000     0.653610000000     0          
C229     C      0.362490000000     0.870580000000     0.633060000000     0          
C230     C      0.376100000000     0.830830000000     0.642800000000     0          
H231     H      0.408090000000     0.824830000000     0.662270000000     0          
C232     C      0.343000000000     0.799790000000     0.624110000000     0          
H233     H      0.352540000000     0.772600000000     0.630880000000     0          
C234     C      0.296400000000     0.807980000000     0.595810000000     0          
C235     C      0.284000000000     0.847550000000     0.586190000000     0          
H236     H      0.252300000000     0.853700000000     0.566550000000     0          
C237     C      0.317100000000     0.878710000000     0.604740000000     0          
H238     H      0.308030000000     0.905890000000     0.597600000000     0          
C239     C      0.260300000000     0.773880000000     0.577990000000     0          
C240     C      0.232800000000     0.746930000000     0.605570000000     0          
H241     H      0.238870000000     0.751270000000     0.634630000000     0          
C242     C      0.196700000000     0.713680000000     0.593350000000     0          
C243     C      0.185600000000     0.708060000000     0.551030000000     0          
H244     H      0.160630000000     0.686200000000     0.541720000000     0          
C245     C      0.211500000000     0.735040000000     0.522280000000     0          
C246     C      0.250100000000     0.767190000000     0.535460000000     0          
C247     C      0.173700000000     0.684440000000     0.624150000000     0          
C248     C      0.146600000000     0.695990000000     0.661510000000     0          
H249     H      0.144990000000     0.723800000000     0.668560000000     0          
C250     C      0.121900000000     0.667940000000     0.688760000000     0          
H251     H      0.101690000000     0.676600000000     0.713570000000     0          
C252     C      0.126600000000     0.627310000000     0.679880000000     0          
C253     C      0.154000000000     0.615250000000     0.643240000000     0          
H254     H      0.157540000000     0.587330000000     0.637060000000     0          
C255     C      0.176500000000     0.643570000000     0.615180000000     0          
H256     H      0.193990000000     0.634850000000     0.589480000000     0          
C257     C      0.098800000000     0.596280000000     0.707930000000     0          
O258     O      0.885720000000     0.439480000000     0.143790000000     0          
O259     O      0.938020000000     0.392590000000     0.180480000000     0          
O260     O      0.613960000000     0.060040000000     0.200550000000     0          
O261     O      0.562800000000     0.108040000000     0.235960000000     0          
O262     O      0.918910000000     0.536080000000     0.222290000000     0          
C263     C      0.898440000000     0.403590000000     0.153610000000     0          
C264     C      0.862490000000     0.370580000000     0.133060000000     0          
C265     C      0.876100000000     0.330830000000     0.142800000000     0          
H266     H      0.908090000000     0.324830000000     0.162270000000     0          
C267     C      0.843000000000     0.299790000000     0.124110000000     0          
H268     H      0.852540000000     0.272600000000     0.130880000000     0          
C269     C      0.796400000000     0.307980000000     0.095810000000     0          
C270     C      0.784000000000     0.347550000000     0.086190000000     0          
H271     H      0.752300000000     0.353700000000     0.066550000000     0          
C272     C      0.817100000000     0.378710000000     0.104740000000     0          
H273     H      0.808030000000     0.405890000000     0.097600000000     0          
C274     C      0.760300000000     0.273880000000     0.077990000000     0          
C275     C      0.732800000000     0.246930000000     0.105570000000     0          
H276     H      0.738870000000     0.251270000000     0.134630000000     0          
C277     C      0.696700000000     0.213680000000     0.093350000000     0          
C278     C      0.685600000000     0.208060000000     0.051030000000     0          
H279     H      0.660630000000     0.186200000000     0.041720000000     0          
C280     C      0.711500000000     0.235040000000     0.022280000000     0          
C281     C      0.750100000000     0.267190000000     0.035460000000     0          
C282     C      0.673700000000     0.184440000000     0.124150000000     0          
C283     C      0.646600000000     0.195990000000     0.161510000000     0          
H284     H      0.644990000000     0.223800000000     0.168560000000     0          
C285     C      0.621900000000     0.167940000000     0.188760000000     0          
H286     H      0.601690000000     0.176600000000     0.213570000000     0          
C287     C      0.626600000000     0.127310000000     0.179880000000     0          
C288     C      0.654000000000     0.115250000000     0.143240000000     0          
H289     H      0.657540000000     0.087330000000     0.137060000000     0          
C290     C      0.676500000000     0.143570000000     0.115180000000     0          
H291     H      0.693990000000     0.134850000000     0.089480000000     0          
C292     C      0.598800000000     0.096280000000     0.207930000000     0          
O293     O      0.614280000000     0.939480000000     0.643790000000     0          
O294     O      0.561980000000     0.892590000000     0.680480000000     0          
O295     O      0.886040000000     0.560040000000     0.700550000000     0          
O296     O      0.937200000000     0.608040000000     0.735960000000     0          
O297     O      0.581090000000     0.036080000000     0.722290000000     0          
C298     C      0.601560000000     0.903590000000     0.653610000000     0          
C299     C      0.637510000000     0.870580000000     0.633060000000     0          
C300     C      0.623900000000     0.830830000000     0.642800000000     0          
H301     H      0.591910000000     0.824830000000     0.662270000000     0          
C302     C      0.657000000000     0.799790000000     0.624110000000     0          
H303     H      0.647460000000     0.772600000000     0.630880000000     0          
C304     C      0.703600000000     0.807980000000     0.595810000000     0          
C305     C      0.716000000000     0.847550000000     0.586190000000     0          
H306     H      0.747700000000     0.853700000000     0.566550000000     0          
C307     C      0.682900000000     0.878710000000     0.604740000000     0          
H308     H      0.691970000000     0.905890000000     0.597600000000     0          
C309     C      0.739700000000     0.773880000000     0.577990000000     0          
C310     C      0.767200000000     0.746930000000     0.605570000000     0          
H311     H      0.761130000000     0.751270000000     0.634630000000     0          
C312     C      0.803300000000     0.713680000000     0.593350000000     0          
C313     C      0.814400000000     0.708060000000     0.551030000000     0          
H314     H      0.839370000000     0.686200000000     0.541720000000     0          
C315     C      0.788500000000     0.735040000000     0.522280000000     0          
C316     C      0.749900000000     0.767190000000     0.535460000000     0          
C317     C      0.826300000000     0.684440000000     0.624150000000     0          
C318     C      0.853400000000     0.695990000000     0.661510000000     0          
H319     H      0.855010000000     0.723800000000     0.668560000000     0          
C320     C      0.878100000000     0.667940000000     0.688760000000     0          
H321     H      0.898310000000     0.676600000000     0.713570000000     0          
C322     C      0.873400000000     0.627310000000     0.679880000000     0          
C323     C      0.846000000000     0.615250000000     0.643240000000     0          
H324     H      0.842460000000     0.587330000000     0.637060000000     0          
C325     C      0.823500000000     0.643570000000     0.615180000000     0          
H326     H      0.806010000000     0.634850000000     0.589480000000     0          
C327     C      0.901200000000     0.596280000000     0.707930000000     0          
H328     H      0.681340000000     0.837560000000     0.512200000000     0          
H329     H      0.656930000000     0.814870000000     0.471240000000     0          
H330     H      0.638950000000     0.798150000000     0.516560000000     0          
O331     O      0.114280000000     0.439480000000     0.143790000000     0          
O332     O      0.061980000000     0.392590000000     0.180480000000     0          
O333     O      0.386040000000     0.060040000000     0.200550000000     0          
O334     O      0.437200000000     0.108040000000     0.235960000000     0          
O335     O      0.081090000000     0.536080000000     0.222290000000     0          
C336     C      0.101560000000     0.403590000000     0.153610000000     0          
C337     C      0.137510000000     0.370580000000     0.133060000000     0          
C338     C      0.123900000000     0.330830000000     0.142800000000     0          
H339     H      0.091910000000     0.324830000000     0.162270000000     0          
C340     C      0.157000000000     0.299790000000     0.124110000000     0          
H341     H      0.147460000000     0.272600000000     0.130880000000     0          
C342     C      0.203600000000     0.307980000000     0.095810000000     0          
C343     C      0.216000000000     0.347550000000     0.086190000000     0          
H344     H      0.247700000000     0.353700000000     0.066550000000     0          
C345     C      0.182900000000     0.378710000000     0.104740000000     0          
H346     H      0.191970000000     0.405890000000     0.097600000000     0          
C347     C      0.239700000000     0.273880000000     0.077990000000     0          
C348     C      0.267200000000     0.246930000000     0.105570000000     0          
H349     H      0.261130000000     0.251270000000     0.134630000000     0          
C350     C      0.303300000000     0.213680000000     0.093350000000     0          
C351     C      0.314400000000     0.208060000000     0.051030000000     0          
H352     H      0.339370000000     0.186200000000     0.041720000000     0          
C353     C      0.288500000000     0.235040000000     0.022280000000     0          
C354     C      0.249900000000     0.267190000000     0.035460000000     0          
C355     C      0.326300000000     0.184440000000     0.124150000000     0          
C356     C      0.353400000000     0.195990000000     0.161510000000     0          
H357     H      0.355010000000     0.223800000000     0.168560000000     0          
C358     C      0.378100000000     0.167940000000     0.188760000000     0          
H359     H      0.398310000000     0.176600000000     0.213570000000     0          
C360     C      0.373400000000     0.127310000000     0.179880000000     0          
C361     C      0.346000000000     0.115250000000     0.143240000000     0          
H362     H      0.342460000000     0.087330000000     0.137060000000     0          
C363     C      0.323500000000     0.143570000000     0.115180000000     0          
H364     H      0.306010000000     0.134850000000     0.089480000000     0          
C365     C      0.401200000000     0.096280000000     0.207930000000     0          
O366     O      0.385720000000     0.060520000000     0.643790000000     0          
O367     O      0.438020000000     0.107410000000     0.680480000000     0          
O368     O      0.113960000000     0.439960000000     0.700550000000     0          
O369     O      0.062800000000     0.391960000000     0.735960000000     0          
O370     O      0.418910000000     0.963920000000     0.722290000000     0          
C371     C      0.398440000000     0.096410000000     0.653610000000     0          
C372     C      0.362490000000     0.129420000000     0.633060000000     0          
C373     C      0.376100000000     0.169170000000     0.642800000000     0          
H374     H      0.408090000000     0.175170000000     0.662270000000     0          
C375     C      0.343000000000     0.200210000000     0.624110000000     0          
H376     H      0.352540000000     0.227400000000     0.630880000000     0          
C377     C      0.296400000000     0.192020000000     0.595810000000     0          
C378     C      0.284000000000     0.152450000000     0.586190000000     0          
H379     H      0.252300000000     0.146300000000     0.566550000000     0          
C380     C      0.317100000000     0.121290000000     0.604740000000     0          
H381     H      0.308030000000     0.094110000000     0.597600000000     0          
C382     C      0.260300000000     0.226120000000     0.577990000000     0          
C383     C      0.232800000000     0.253070000000     0.605570000000     0          
H384     H      0.238870000000     0.248730000000     0.634630000000     0          
C385     C      0.196700000000     0.286320000000     0.593350000000     0          
C386     C      0.185600000000     0.291940000000     0.551030000000     0          
H387     H      0.160630000000     0.313800000000     0.541720000000     0          
C388     C      0.211500000000     0.264960000000     0.522280000000     0          
C389     C      0.250100000000     0.232810000000     0.535460000000     0          
C390     C      0.173700000000     0.315560000000     0.624150000000     0          
C391     C      0.146600000000     0.304010000000     0.661510000000     0          
H392     H      0.144990000000     0.276200000000     0.668560000000     0          
C393     C      0.121900000000     0.332060000000     0.688760000000     0          
H394     H      0.101690000000     0.323400000000     0.713570000000     0          
C395     C      0.126600000000     0.372690000000     0.679880000000     0          
C396     C      0.154000000000     0.384750000000     0.643240000000     0          
H397     H      0.157540000000     0.412670000000     0.637060000000     0          
C398     C      0.176500000000     0.356430000000     0.615180000000     0          
H399     H      0.193990000000     0.365150000000     0.589480000000     0          
C400     C      0.098800000000     0.403720000000     0.707930000000     0          
O401     O      0.885720000000     0.560520000000     0.143790000000     0          
O402     O      0.938020000000     0.607410000000     0.180480000000     0          
O403     O      0.613960000000     0.939960000000     0.200550000000     0          
O404     O      0.562800000000     0.891960000000     0.235960000000     0          
O405     O      0.918910000000     0.463920000000     0.222290000000     0          
C406     C      0.898440000000     0.596410000000     0.153610000000     0          
C407     C      0.862490000000     0.629420000000     0.133060000000     0          
C408     C      0.876100000000     0.669170000000     0.142800000000     0          
H409     H      0.908090000000     0.675170000000     0.162270000000     0          
C410     C      0.843000000000     0.700210000000     0.124110000000     0          
H411     H      0.852540000000     0.727400000000     0.130880000000     0          
C412     C      0.796400000000     0.692020000000     0.095810000000     0          
C413     C      0.784000000000     0.652450000000     0.086190000000     0          
H414     H      0.752300000000     0.646300000000     0.066550000000     0          
C415     C      0.817100000000     0.621290000000     0.104740000000     0          
H416     H      0.808030000000     0.594110000000     0.097600000000     0          
C417     C      0.760300000000     0.726120000000     0.077990000000     0          
C418     C      0.732800000000     0.753070000000     0.105570000000     0          
H419     H      0.738870000000     0.748730000000     0.134630000000     0          
C420     C      0.696700000000     0.786320000000     0.093350000000     0          
C421     C      0.685600000000     0.791940000000     0.051030000000     0          
H422     H      0.660630000000     0.813800000000     0.041720000000     0          
C423     C      0.711500000000     0.764960000000     0.022280000000     0          
C424     C      0.750100000000     0.732810000000     0.035460000000     0          
C425     C      0.673700000000     0.815560000000     0.124150000000     0          
C426     C      0.646600000000     0.804010000000     0.161510000000     0          
H427     H      0.644990000000     0.776200000000     0.168560000000     0          
C428     C      0.621900000000     0.832060000000     0.188760000000     0          
H429     H      0.601690000000     0.823400000000     0.213570000000     0          
C430     C      0.626600000000     0.872690000000     0.179880000000     0          
C431     C      0.654000000000     0.884750000000     0.143240000000     0          
H432     H      0.657540000000     0.912670000000     0.137060000000     0          
C433     C      0.676500000000     0.856430000000     0.115180000000     0          
H434     H      0.693990000000     0.865150000000     0.089480000000     0          
C435     C      0.598800000000     0.903720000000     0.207930000000     0          
O436     O      0.385720000000     0.939480000000     0.356210000000     0          
O437     O      0.438020000000     0.892590000000     0.319520000000     0          
O438     O      0.113960000000     0.560040000000     0.299450000000     0          
O439     O      0.062800000000     0.608040000000     0.264040000000     0          
O440     O      0.418910000000     0.036080000000     0.277710000000     0          
C441     C      0.398440000000     0.903590000000     0.346390000000     0          
C442     C      0.362490000000     0.870580000000     0.366940000000     0          
C443     C      0.376100000000     0.830830000000     0.357200000000     0          
H444     H      0.408090000000     0.824830000000     0.337730000000     0          
C445     C      0.343000000000     0.799790000000     0.375890000000     0          
H446     H      0.352540000000     0.772600000000     0.369120000000     0          
C447     C      0.296400000000     0.807980000000     0.404190000000     0          
C448     C      0.284000000000     0.847550000000     0.413810000000     0          
H449     H      0.252300000000     0.853700000000     0.433450000000     0          
C450     C      0.317100000000     0.878710000000     0.395260000000     0          
H451     H      0.308030000000     0.905890000000     0.402400000000     0          
C452     C      0.260300000000     0.773880000000     0.422010000000     0          
C453     C      0.232800000000     0.746930000000     0.394430000000     0          
H454     H      0.238870000000     0.751270000000     0.365370000000     0          
C455     C      0.196700000000     0.713680000000     0.406650000000     0          
C456     C      0.185600000000     0.708060000000     0.448970000000     0          
H457     H      0.160630000000     0.686200000000     0.458280000000     0          
C458     C      0.211500000000     0.735040000000     0.477720000000     0          
C459     C      0.250100000000     0.767190000000     0.464540000000     0          
C460     C      0.173700000000     0.684440000000     0.375850000000     0          
C461     C      0.146600000000     0.695990000000     0.338490000000     0          
H462     H      0.144990000000     0.723800000000     0.331440000000     0          
C463     C      0.121900000000     0.667940000000     0.311240000000     0          
H464     H      0.101690000000     0.676600000000     0.286430000000     0          
C465     C      0.126600000000     0.627310000000     0.320120000000     0          
C466     C      0.154000000000     0.615250000000     0.356760000000     0          
H467     H      0.157540000000     0.587330000000     0.362940000000     0          
C468     C      0.176500000000     0.643570000000     0.384820000000     0          
H469     H      0.193990000000     0.634850000000     0.410520000000     0          
C470     C      0.098800000000     0.596280000000     0.292070000000     0          
H471     H      0.318660000000     0.837560000000     0.487800000000     0          
H472     H      0.343070000000     0.814870000000     0.528760000000     0          
H473     H      0.361050000000     0.798150000000     0.483440000000     0          
O474     O      0.885720000000     0.439480000000     0.856210000000     0          
O475     O      0.938020000000     0.392590000000     0.819520000000     0          
O476     O      0.613960000000     0.060040000000     0.799450000000     0          
O477     O      0.562800000000     0.108040000000     0.764040000000     0          
O478     O      0.918910000000     0.536080000000     0.777710000000     0          
C479     C      0.898440000000     0.403590000000     0.846390000000     0          
C480     C      0.862490000000     0.370580000000     0.866940000000     0          
C481     C      0.876100000000     0.330830000000     0.857200000000     0          
H482     H      0.908090000000     0.324830000000     0.837730000000     0          
C483     C      0.843000000000     0.299790000000     0.875890000000     0          
H484     H      0.852540000000     0.272600000000     0.869120000000     0          
C485     C      0.796400000000     0.307980000000     0.904190000000     0          
C486     C      0.784000000000     0.347550000000     0.913810000000     0          
H487     H      0.752300000000     0.353700000000     0.933450000000     0          
C488     C      0.817100000000     0.378710000000     0.895260000000     0          
H489     H      0.808030000000     0.405890000000     0.902400000000     0          
C490     C      0.760300000000     0.273880000000     0.922010000000     0          
C491     C      0.732800000000     0.246930000000     0.894430000000     0          
H492     H      0.738870000000     0.251270000000     0.865370000000     0          
C493     C      0.696700000000     0.213680000000     0.906650000000     0          
C494     C      0.685600000000     0.208060000000     0.948970000000     0          
H495     H      0.660630000000     0.186200000000     0.958280000000     0          
C496     C      0.711500000000     0.235040000000     0.977720000000     0          
C497     C      0.750100000000     0.267190000000     0.964540000000     0          
C498     C      0.673700000000     0.184440000000     0.875850000000     0          
C499     C      0.646600000000     0.195990000000     0.838490000000     0          
H500     H      0.644990000000     0.223800000000     0.831440000000     0          
C501     C      0.621900000000     0.167940000000     0.811240000000     0          
H502     H      0.601690000000     0.176600000000     0.786430000000     0          
C503     C      0.626600000000     0.127310000000     0.820120000000     0          
C504     C      0.654000000000     0.115250000000     0.856760000000     0          
H505     H      0.657540000000     0.087330000000     0.862940000000     0          
C506     C      0.676500000000     0.143570000000     0.884820000000     0          
H507     H      0.693990000000     0.134850000000     0.910520000000     0          
C508     C      0.598800000000     0.096280000000     0.792070000000     0          
H509     H      0.818660000000     0.337560000000     0.987800000000     0          
H510     H      0.843070000000     0.314870000000     0.028760000000     0          
H511     H      0.861050000000     0.298150000000     0.983440000000     0          
O512     O      0.614280000000     0.060520000000     0.356210000000     0          
O513     O      0.561980000000     0.107410000000     0.319520000000     0          
O514     O      0.886040000000     0.439960000000     0.299450000000     0          
O515     O      0.937200000000     0.391960000000     0.264040000000     0          
O516     O      0.581090000000     0.963920000000     0.277710000000     0          
C517     C      0.601560000000     0.096410000000     0.346390000000     0          
C518     C      0.637510000000     0.129420000000     0.366940000000     0          
C519     C      0.623900000000     0.169170000000     0.357200000000     0          
H520     H      0.591910000000     0.175170000000     0.337730000000     0          
C521     C      0.657000000000     0.200210000000     0.375890000000     0          
H522     H      0.647460000000     0.227400000000     0.369120000000     0          
C523     C      0.703600000000     0.192020000000     0.404190000000     0          
C524     C      0.716000000000     0.152450000000     0.413810000000     0          
H525     H      0.747700000000     0.146300000000     0.433450000000     0          
C526     C      0.682900000000     0.121290000000     0.395260000000     0          
H527     H      0.691970000000     0.094110000000     0.402400000000     0          
C528     C      0.739700000000     0.226120000000     0.422010000000     0          
C529     C      0.767200000000     0.253070000000     0.394430000000     0          
H530     H      0.761130000000     0.248730000000     0.365370000000     0          
C531     C      0.803300000000     0.286320000000     0.406650000000     0          
C532     C      0.814400000000     0.291940000000     0.448970000000     0          
H533     H      0.839370000000     0.313800000000     0.458280000000     0          
C534     C      0.788500000000     0.264960000000     0.477720000000     0          
C535     C      0.749900000000     0.232810000000     0.464540000000     0          
C536     C      0.826300000000     0.315560000000     0.375850000000     0          
C537     C      0.853400000000     0.304010000000     0.338490000000     0          
H538     H      0.855010000000     0.276200000000     0.331440000000     0          
C539     C      0.878100000000     0.332060000000     0.311240000000     0          
H540     H      0.898310000000     0.323400000000     0.286430000000     0          
C541     C      0.873400000000     0.372690000000     0.320120000000     0          
C542     C      0.846000000000     0.384750000000     0.356760000000     0          
H543     H      0.842460000000     0.412670000000     0.362940000000     0          
C544     C      0.823500000000     0.356430000000     0.384820000000     0          
H545     H      0.806010000000     0.365150000000     0.410520000000     0          
C546     C      0.901200000000     0.403720000000     0.292070000000     0          
O547     O      0.114280000000     0.560520000000     0.856210000000     0          
O548     O      0.061980000000     0.607410000000     0.819520000000     0          
O549     O      0.386040000000     0.939960000000     0.799450000000     0          
O550     O      0.437200000000     0.891960000000     0.764040000000     0          
O551     O      0.081090000000     0.463920000000     0.777710000000     0          
C552     C      0.101560000000     0.596410000000     0.846390000000     0          
C553     C      0.137510000000     0.629420000000     0.866940000000     0          
C554     C      0.123900000000     0.669170000000     0.857200000000     0          
H555     H      0.091910000000     0.675170000000     0.837730000000     0          
C556     C      0.157000000000     0.700210000000     0.875890000000     0          
H557     H      0.147460000000     0.727400000000     0.869120000000     0          
C558     C      0.203600000000     0.692020000000     0.904190000000     0          
C559     C      0.216000000000     0.652450000000     0.913810000000     0          
H560     H      0.247700000000     0.646300000000     0.933450000000     0          
C561     C      0.182900000000     0.621290000000     0.895260000000     0          
H562     H      0.191970000000     0.594110000000     0.902400000000     0          
C563     C      0.239700000000     0.726120000000     0.922010000000     0          
C564     C      0.267200000000     0.753070000000     0.894430000000     0          
H565     H      0.261130000000     0.748730000000     0.865370000000     0          
C566     C      0.303300000000     0.786320000000     0.906650000000     0          
C567     C      0.314400000000     0.791940000000     0.948970000000     0          
H568     H      0.339370000000     0.813800000000     0.958280000000     0          
C569     C      0.288500000000     0.764960000000     0.977720000000     0          
C570     C      0.249900000000     0.732810000000     0.964540000000     0          
C571     C      0.326300000000     0.815560000000     0.875850000000     0          
C572     C      0.353400000000     0.804010000000     0.838490000000     0          
H573     H      0.355010000000     0.776200000000     0.831440000000     0          
C574     C      0.378100000000     0.832060000000     0.811240000000     0          
H575     H      0.398310000000     0.823400000000     0.786430000000     0          
C576     C      0.373400000000     0.872690000000     0.820120000000     0          
C577     C      0.346000000000     0.884750000000     0.856760000000     0          
H578     H      0.342460000000     0.912670000000     0.862940000000     0          
C579     C      0.323500000000     0.856430000000     0.884820000000     0          
H580     H      0.306010000000     0.865150000000     0.910520000000     0          
C581     C      0.401200000000     0.903720000000     0.792070000000     0          
H582     H      0.181340000000     0.662440000000     0.987800000000     0          
H583     H      0.156930000000     0.685130000000     0.028760000000     0          
H584     H      0.138950000000     0.701850000000     0.983440000000     0          
Zr585    Zr     0.500000000000     0.073960000000     0.278020000000     0          
O586     O      0.500000000000     0.963590000000     0.332470000000     0          
O587     O      0.500000000000     0.036150000000     0.223410000000     0          
Zr588    Zr     0.000000000000     0.573960000000     0.778020000000     0          
O589     O      0.000000000000     0.463590000000     0.832470000000     0          
O590     O      0.000000000000     0.536150000000     0.723410000000     0          
Zr591    Zr     0.500000000000     0.926040000000     0.278020000000     0          
O592     O      0.500000000000     0.036410000000     0.332470000000     0          
O593     O      0.500000000000     0.963850000000     0.223410000000     0          
Zr594    Zr     0.000000000000     0.426040000000     0.778020000000     0          
O595     O      0.000000000000     0.536410000000     0.832470000000     0          
O596     O      0.000000000000     0.463850000000     0.723410000000     0          
Zr597    Zr     0.500000000000     0.073960000000     0.721980000000     0          
O598     O      0.500000000000     0.963590000000     0.667530000000     0          
O599     O      0.500000000000     0.036150000000     0.776590000000     0          
Zr600    Zr     0.000000000000     0.573960000000     0.221980000000     0          
O601     O      0.000000000000     0.463590000000     0.167530000000     0          
O602     O      0.000000000000     0.536150000000     0.276590000000     0          
Zr603    Zr     0.500000000000     0.926040000000     0.721980000000     0          
O604     O      0.500000000000     0.036410000000     0.667530000000     0          
O605     O      0.500000000000     0.963850000000     0.776590000000     0          
Zr606    Zr     0.000000000000     0.426040000000     0.221980000000     0          
O607     O      0.000000000000     0.536410000000     0.167530000000     0          
O608     O      0.000000000000     0.463850000000     0.276590000000     0          
Zr609    Zr     0.418620000000     0.000000000000     0.333320000000     0          
Zr610    Zr     0.918620000000     0.500000000000     0.833320000000     0          
Zr611    Zr     0.581380000000     0.000000000000     0.333320000000     0          
Zr612    Zr     0.081380000000     0.500000000000     0.833320000000     0          
Zr613    Zr     0.581380000000     0.000000000000     0.666680000000     0          
Zr614    Zr     0.081380000000     0.500000000000     0.166680000000     0          
Zr615    Zr     0.418620000000     0.000000000000     0.666680000000     0          
Zr616    Zr     0.918620000000     0.500000000000     0.166680000000     0          
Zr617    Zr     0.081080000000     0.500000000000     0.277080000000     0          
Zr618    Zr     0.581080000000     0.000000000000     0.777080000000     0          
Zr619    Zr     0.918920000000     0.500000000000     0.277080000000     0          
Zr620    Zr     0.418920000000     0.000000000000     0.777080000000     0          
Zr621    Zr     0.918920000000     0.500000000000     0.722920000000     0          
Zr622    Zr     0.418920000000     0.000000000000     0.222920000000     0          
Zr623    Zr     0.081080000000     0.500000000000     0.722920000000     0          
Zr624    Zr     0.581080000000     0.000000000000     0.222920000000     0          
N625     N      0.273200000000     0.213860000000     0.500000000000     0          
C626     C      0.328500000000     0.188800000000     0.500000000000     0          
N627     N      0.773200000000     0.713860000000     0.000000000000     0          
C628     C      0.828500000000     0.688800000000     0.000000000000     0          
N629     N      0.726800000000     0.786140000000     0.500000000000     0          
C630     C      0.671500000000     0.811200000000     0.500000000000     0          
N631     N      0.226800000000     0.286140000000     0.000000000000     0          
C632     C      0.171500000000     0.311200000000     0.000000000000     0          
N633     N      0.726800000000     0.213860000000     0.500000000000     0          
C634     C      0.671500000000     0.188800000000     0.500000000000     0          
N635     N      0.226800000000     0.713860000000     0.000000000000     0          
C636     C      0.171500000000     0.688800000000     0.000000000000     0          
N637     N      0.273200000000     0.786140000000     0.500000000000     0          
C638     C      0.328500000000     0.811200000000     0.500000000000     0          
N639     N      0.773200000000     0.286140000000     0.000000000000     0          
C640     C      0.828500000000     0.311200000000     0.000000000000     0          


