data_GINTIJ

_audit_creation_method RASPA-1.0
_audit_creation_date 2020-11-2
_audit_author_name 'Rocio Bueno-Perez'

_cell_length_a    17.723
_cell_length_b    32.705
_cell_length_c    34.67
_cell_angle_alpha 90
_cell_angle_beta  90
_cell_angle_gamma 90
_cell_volume      20095.8

_symmetry_cell_setting          orthorhombic
_symmetry_space_group_name_Hall 'P 1'
_symmetry_space_group_name_H-M  'P 1'
_symmetry_Int_Tables_number     1

_symmetry_equiv_pos_as_xyz 'x,y,z'

loop_
_atom_site_label
_atom_site_type_symbol
_atom_site_fract_x
_atom_site_fract_y
_atom_site_fract_z
_atom_site_charge
C1       C      0.121000000000     0.154500000000     0.593400000000     0          
C2       C      0.150700000000     0.130300000000     0.627000000000     0          
C3       C      0.207500000000     0.101200000000     0.622100000000     0          
H1       H      0.228500000000     0.096300000000     0.597400000000     0          
C4       C      0.233000000000     0.079400000000     0.654500000000     0          
H2       H      0.267200000000     0.057200000000     0.651600000000     0          
C5       C      0.206200000000     0.091300000000     0.692500000000     0          
C6       C      0.153200000000     0.122600000000     0.695800000000     0          
H3       H      0.137300000000     0.131100000000     0.720700000000     0          
C7       C      0.123600000000     0.141300000000     0.663700000000     0          
H4       H      0.085300000000     0.161500000000     0.666300000000     0          
C8       C      0.242700000000     0.075200000000     0.728400000000     0          
C9       C      0.252500000000     0.033600000000     0.735900000000     0          
C10      C      0.280600000000     0.020300000000     0.772100000000     0          
C11      C      0.306300000000     0.049900000000     0.799900000000     0          
H5       H      0.329900000000     0.041600000000     0.823200000000     0          
C12      C      0.295500000000     0.090900000000     0.791600000000     0          
C13      C      0.265100000000     0.102700000000     0.756800000000     0          
H6       H      0.259100000000     0.131100000000     0.751900000000     0          
C14      C      0.315700000000     0.122100000000     0.821900000000     0          
C15      C      0.292900000000     0.115300000000     0.859700000000     0          
H7       H      0.261000000000     0.093000000000     0.866200000000     0          
C16      C      0.319500000000     0.143000000000     0.888100000000     0          
H8       H      0.307700000000     0.138200000000     0.914500000000     0          
C17      C      0.363000000000     0.177700000000     0.878200000000     0          
C18      C      0.374100000000     0.186100000000     0.839000000000     0          
H9       H      0.397700000000     0.210900000000     0.831300000000     0          
C19      C      0.350500000000     0.158200000000     0.811200000000     0          
H10      H      0.358500000000     0.164000000000     0.784700000000     0          
C20      C      0.384700000000     0.209300000000     0.906500000000     0          
O5       O      0.073200000000     0.181900000000     0.601800000000     0          
O6       O      0.141500000000     0.143800000000     0.559600000000     0          
O7       O      0.427800000000     0.237500000000     0.898200000000     0          
O8       O      0.358300000000     0.202000000000     0.941400000000     0          
O10      O      0.898400000000     0.221700000000     0.535400000000     0          
N1       N      0.230100000000     0.000000000000     0.713400000000     0          
H11      H      0.207500000000     0.000000000000     0.690700000000     0          
O1       O      0.000000000000     0.167400000000     0.533300000000     0          
O3       O      0.000000000000     0.273200000000     0.532500000000     0          
Zr2      Zr     0.000000000000     0.222050000000     0.570120000000     0          
Zr1      Zr     0.899560000000     0.166950000000     0.500000000000     0          
Zr3      Zr     0.900000000000     0.275870000000     0.500000000000     0          
C1       C      0.879000000000     0.845500000000     0.593400000000     0          
C2       C      0.849300000000     0.869700000000     0.627000000000     0          
C3       C      0.792500000000     0.898800000000     0.622100000000     0          
H1       H      0.771500000000     0.903700000000     0.597400000000     0          
C4       C      0.767000000000     0.920600000000     0.654500000000     0          
H2       H      0.732800000000     0.942800000000     0.651600000000     0          
C5       C      0.793800000000     0.908700000000     0.692500000000     0          
C6       C      0.846800000000     0.877400000000     0.695800000000     0          
H3       H      0.862700000000     0.868900000000     0.720700000000     0          
C7       C      0.876400000000     0.858700000000     0.663700000000     0          
H4       H      0.914700000000     0.838500000000     0.666300000000     0          
C8       C      0.757300000000     0.924800000000     0.728400000000     0          
C9       C      0.747500000000     0.966400000000     0.735900000000     0          
C10      C      0.719400000000     0.979700000000     0.772100000000     0          
C11      C      0.693700000000     0.950100000000     0.799900000000     0          
H5       H      0.670100000000     0.958400000000     0.823200000000     0          
C12      C      0.704500000000     0.909100000000     0.791600000000     0          
C13      C      0.734900000000     0.897300000000     0.756800000000     0          
H6       H      0.740900000000     0.868900000000     0.751900000000     0          
C14      C      0.684300000000     0.877900000000     0.821900000000     0          
C15      C      0.707100000000     0.884700000000     0.859700000000     0          
H7       H      0.739000000000     0.907000000000     0.866200000000     0          
C16      C      0.680500000000     0.857000000000     0.888100000000     0          
H8       H      0.692300000000     0.861800000000     0.914500000000     0          
C17      C      0.637000000000     0.822300000000     0.878200000000     0          
C18      C      0.625900000000     0.813900000000     0.839000000000     0          
H9       H      0.602300000000     0.789100000000     0.831300000000     0          
C19      C      0.649500000000     0.841800000000     0.811200000000     0          
H10      H      0.641500000000     0.836000000000     0.784700000000     0          
C20      C      0.615300000000     0.790700000000     0.906500000000     0          
O5       O      0.926800000000     0.818100000000     0.601800000000     0          
O6       O      0.858500000000     0.856200000000     0.559600000000     0          
O7       O      0.572200000000     0.762500000000     0.898200000000     0          
O8       O      0.641700000000     0.798000000000     0.941400000000     0          
O10      O      0.101600000000     0.778300000000     0.535400000000     0          
N1       N      0.769900000000     0.000000000000     0.713400000000     0          
H11      H      0.792500000000     0.000000000000     0.690700000000     0          
O1       O      0.000000000000     0.832600000000     0.533300000000     0          
O3       O      0.000000000000     0.726800000000     0.532500000000     0          
Zr2      Zr     0.000000000000     0.777950000000     0.570120000000     0          
Zr1      Zr     0.100440000000     0.833050000000     0.500000000000     0          
Zr3      Zr     0.100000000000     0.724130000000     0.500000000000     0          
C1       C      0.121000000000     0.845500000000     0.406600000000     0          
C2       C      0.150700000000     0.869700000000     0.373000000000     0          
C3       C      0.207500000000     0.898800000000     0.377900000000     0          
H1       H      0.228500000000     0.903700000000     0.402600000000     0          
C4       C      0.233000000000     0.920600000000     0.345500000000     0          
H2       H      0.267200000000     0.942800000000     0.348400000000     0          
C5       C      0.206200000000     0.908700000000     0.307500000000     0          
C6       C      0.153200000000     0.877400000000     0.304200000000     0          
H3       H      0.137300000000     0.868900000000     0.279300000000     0          
C7       C      0.123600000000     0.858700000000     0.336300000000     0          
H4       H      0.085300000000     0.838500000000     0.333700000000     0          
C8       C      0.242700000000     0.924800000000     0.271600000000     0          
C9       C      0.252500000000     0.966400000000     0.264100000000     0          
C10      C      0.280600000000     0.979700000000     0.227900000000     0          
C11      C      0.306300000000     0.950100000000     0.200100000000     0          
H5       H      0.329900000000     0.958400000000     0.176800000000     0          
C12      C      0.295500000000     0.909100000000     0.208400000000     0          
C13      C      0.265100000000     0.897300000000     0.243200000000     0          
H6       H      0.259100000000     0.868900000000     0.248100000000     0          
C14      C      0.315700000000     0.877900000000     0.178100000000     0          
C15      C      0.292900000000     0.884700000000     0.140300000000     0          
H7       H      0.261000000000     0.907000000000     0.133800000000     0          
C16      C      0.319500000000     0.857000000000     0.111900000000     0          
H8       H      0.307700000000     0.861800000000     0.085500000000     0          
C17      C      0.363000000000     0.822300000000     0.121800000000     0          
C18      C      0.374100000000     0.813900000000     0.161000000000     0          
H9       H      0.397700000000     0.789100000000     0.168700000000     0          
C19      C      0.350500000000     0.841800000000     0.188800000000     0          
H10      H      0.358500000000     0.836000000000     0.215300000000     0          
C20      C      0.384700000000     0.790700000000     0.093500000000     0          
O5       O      0.073200000000     0.818100000000     0.398200000000     0          
O6       O      0.141500000000     0.856200000000     0.440400000000     0          
O7       O      0.427800000000     0.762500000000     0.101800000000     0          
O8       O      0.358300000000     0.798000000000     0.058600000000     0          
O10      O      0.898400000000     0.778300000000     0.464600000000     0          
N1       N      0.230100000000     0.000000000000     0.286600000000     0          
H11      H      0.207500000000     0.000000000000     0.309300000000     0          
O1       O      0.000000000000     0.832600000000     0.466700000000     0          
O3       O      0.000000000000     0.726800000000     0.467500000000     0          
Zr2      Zr     0.000000000000     0.777950000000     0.429880000000     0          
Zr1      Zr     0.899560000000     0.833050000000     0.500000000000     0          
Zr3      Zr     0.900000000000     0.724130000000     0.500000000000     0          
C1       C      0.879000000000     0.154500000000     0.406600000000     0          
C2       C      0.849300000000     0.130300000000     0.373000000000     0          
C3       C      0.792500000000     0.101200000000     0.377900000000     0          
H1       H      0.771500000000     0.096300000000     0.402600000000     0          
C4       C      0.767000000000     0.079400000000     0.345500000000     0          
H2       H      0.732800000000     0.057200000000     0.348400000000     0          
C5       C      0.793800000000     0.091300000000     0.307500000000     0          
C6       C      0.846800000000     0.122600000000     0.304200000000     0          
H3       H      0.862700000000     0.131100000000     0.279300000000     0          
C7       C      0.876400000000     0.141300000000     0.336300000000     0          
H4       H      0.914700000000     0.161500000000     0.333700000000     0          
C8       C      0.757300000000     0.075200000000     0.271600000000     0          
C9       C      0.747500000000     0.033600000000     0.264100000000     0          
C10      C      0.719400000000     0.020300000000     0.227900000000     0          
C11      C      0.693700000000     0.049900000000     0.200100000000     0          
H5       H      0.670100000000     0.041600000000     0.176800000000     0          
C12      C      0.704500000000     0.090900000000     0.208400000000     0          
C13      C      0.734900000000     0.102700000000     0.243200000000     0          
H6       H      0.740900000000     0.131100000000     0.248100000000     0          
C14      C      0.684300000000     0.122100000000     0.178100000000     0          
C15      C      0.707100000000     0.115300000000     0.140300000000     0          
H7       H      0.739000000000     0.093000000000     0.133800000000     0          
C16      C      0.680500000000     0.143000000000     0.111900000000     0          
H8       H      0.692300000000     0.138200000000     0.085500000000     0          
C17      C      0.637000000000     0.177700000000     0.121800000000     0          
C18      C      0.625900000000     0.186100000000     0.161000000000     0          
H9       H      0.602300000000     0.210900000000     0.168700000000     0          
C19      C      0.649500000000     0.158200000000     0.188800000000     0          
H10      H      0.641500000000     0.164000000000     0.215300000000     0          
C20      C      0.615300000000     0.209300000000     0.093500000000     0          
O5       O      0.926800000000     0.181900000000     0.398200000000     0          
O6       O      0.858500000000     0.143800000000     0.440400000000     0          
O7       O      0.572200000000     0.237500000000     0.101800000000     0          
O8       O      0.641700000000     0.202000000000     0.058600000000     0          
O10      O      0.101600000000     0.221700000000     0.464600000000     0          
N1       N      0.769900000000     0.000000000000     0.286600000000     0          
H11      H      0.792500000000     0.000000000000     0.309300000000     0          
O1       O      0.000000000000     0.167400000000     0.466700000000     0          
O3       O      0.000000000000     0.273200000000     0.467500000000     0          
Zr2      Zr     0.000000000000     0.222050000000     0.429880000000     0          
Zr1      Zr     0.100440000000     0.166950000000     0.500000000000     0          
Zr3      Zr     0.100000000000     0.275870000000     0.500000000000     0          
C1       C      0.879000000000     0.845500000000     0.406600000000     0          
C2       C      0.849300000000     0.869700000000     0.373000000000     0          
C3       C      0.792500000000     0.898800000000     0.377900000000     0          
H1       H      0.771500000000     0.903700000000     0.402600000000     0          
C4       C      0.767000000000     0.920600000000     0.345500000000     0          
H2       H      0.732800000000     0.942800000000     0.348400000000     0          
C5       C      0.793800000000     0.908700000000     0.307500000000     0          
C6       C      0.846800000000     0.877400000000     0.304200000000     0          
H3       H      0.862700000000     0.868900000000     0.279300000000     0          
C7       C      0.876400000000     0.858700000000     0.336300000000     0          
H4       H      0.914700000000     0.838500000000     0.333700000000     0          
C8       C      0.757300000000     0.924800000000     0.271600000000     0          
C9       C      0.747500000000     0.966400000000     0.264100000000     0          
C10      C      0.719400000000     0.979700000000     0.227900000000     0          
C11      C      0.693700000000     0.950100000000     0.200100000000     0          
H5       H      0.670100000000     0.958400000000     0.176800000000     0          
C12      C      0.704500000000     0.909100000000     0.208400000000     0          
C13      C      0.734900000000     0.897300000000     0.243200000000     0          
H6       H      0.740900000000     0.868900000000     0.248100000000     0          
C14      C      0.684300000000     0.877900000000     0.178100000000     0          
C15      C      0.707100000000     0.884700000000     0.140300000000     0          
H7       H      0.739000000000     0.907000000000     0.133800000000     0          
C16      C      0.680500000000     0.857000000000     0.111900000000     0          
H8       H      0.692300000000     0.861800000000     0.085500000000     0          
C17      C      0.637000000000     0.822300000000     0.121800000000     0          
C18      C      0.625900000000     0.813900000000     0.161000000000     0          
H9       H      0.602300000000     0.789100000000     0.168700000000     0          
C19      C      0.649500000000     0.841800000000     0.188800000000     0          
H10      H      0.641500000000     0.836000000000     0.215300000000     0          
C20      C      0.615300000000     0.790700000000     0.093500000000     0          
O5       O      0.926800000000     0.818100000000     0.398200000000     0          
O6       O      0.858500000000     0.856200000000     0.440400000000     0          
O7       O      0.572200000000     0.762500000000     0.101800000000     0          
O8       O      0.641700000000     0.798000000000     0.058600000000     0          
O10      O      0.101600000000     0.778300000000     0.464600000000     0          
C1       C      0.121000000000     0.154500000000     0.406600000000     0          
C2       C      0.150700000000     0.130300000000     0.373000000000     0          
C3       C      0.207500000000     0.101200000000     0.377900000000     0          
H1       H      0.228500000000     0.096300000000     0.402600000000     0          
C4       C      0.233000000000     0.079400000000     0.345500000000     0          
H2       H      0.267200000000     0.057200000000     0.348400000000     0          
C5       C      0.206200000000     0.091300000000     0.307500000000     0          
C6       C      0.153200000000     0.122600000000     0.304200000000     0          
H3       H      0.137300000000     0.131100000000     0.279300000000     0          
C7       C      0.123600000000     0.141300000000     0.336300000000     0          
H4       H      0.085300000000     0.161500000000     0.333700000000     0          
C8       C      0.242700000000     0.075200000000     0.271600000000     0          
C9       C      0.252500000000     0.033600000000     0.264100000000     0          
C10      C      0.280600000000     0.020300000000     0.227900000000     0          
C11      C      0.306300000000     0.049900000000     0.200100000000     0          
H5       H      0.329900000000     0.041600000000     0.176800000000     0          
C12      C      0.295500000000     0.090900000000     0.208400000000     0          
C13      C      0.265100000000     0.102700000000     0.243200000000     0          
H6       H      0.259100000000     0.131100000000     0.248100000000     0          
C14      C      0.315700000000     0.122100000000     0.178100000000     0          
C15      C      0.292900000000     0.115300000000     0.140300000000     0          
H7       H      0.261000000000     0.093000000000     0.133800000000     0          
C16      C      0.319500000000     0.143000000000     0.111900000000     0          
H8       H      0.307700000000     0.138200000000     0.085500000000     0          
C17      C      0.363000000000     0.177700000000     0.121800000000     0          
C18      C      0.374100000000     0.186100000000     0.161000000000     0          
H9       H      0.397700000000     0.210900000000     0.168700000000     0          
C19      C      0.350500000000     0.158200000000     0.188800000000     0          
H10      H      0.358500000000     0.164000000000     0.215300000000     0          
C20      C      0.384700000000     0.209300000000     0.093500000000     0          
O5       O      0.073200000000     0.181900000000     0.398200000000     0          
O6       O      0.141500000000     0.143800000000     0.440400000000     0          
O7       O      0.427800000000     0.237500000000     0.101800000000     0          
O8       O      0.358300000000     0.202000000000     0.058600000000     0          
O10      O      0.898400000000     0.221700000000     0.464600000000     0          
C1       C      0.879000000000     0.154500000000     0.593400000000     0          
C2       C      0.849300000000     0.130300000000     0.627000000000     0          
C3       C      0.792500000000     0.101200000000     0.622100000000     0          
H1       H      0.771500000000     0.096300000000     0.597400000000     0          
C4       C      0.767000000000     0.079400000000     0.654500000000     0          
H2       H      0.732800000000     0.057200000000     0.651600000000     0          
C5       C      0.793800000000     0.091300000000     0.692500000000     0          
C6       C      0.846800000000     0.122600000000     0.695800000000     0          
H3       H      0.862700000000     0.131100000000     0.720700000000     0          
C7       C      0.876400000000     0.141300000000     0.663700000000     0          
H4       H      0.914700000000     0.161500000000     0.666300000000     0          
C8       C      0.757300000000     0.075200000000     0.728400000000     0          
C9       C      0.747500000000     0.033600000000     0.735900000000     0          
C10      C      0.719400000000     0.020300000000     0.772100000000     0          
C11      C      0.693700000000     0.049900000000     0.799900000000     0          
H5       H      0.670100000000     0.041600000000     0.823200000000     0          
C12      C      0.704500000000     0.090900000000     0.791600000000     0          
C13      C      0.734900000000     0.102700000000     0.756800000000     0          
H6       H      0.740900000000     0.131100000000     0.751900000000     0          
C14      C      0.684300000000     0.122100000000     0.821900000000     0          
C15      C      0.707100000000     0.115300000000     0.859700000000     0          
H7       H      0.739000000000     0.093000000000     0.866200000000     0          
C16      C      0.680500000000     0.143000000000     0.888100000000     0          
H8       H      0.692300000000     0.138200000000     0.914500000000     0          
C17      C      0.637000000000     0.177700000000     0.878200000000     0          
C18      C      0.625900000000     0.186100000000     0.839000000000     0          
H9       H      0.602300000000     0.210900000000     0.831300000000     0          
C19      C      0.649500000000     0.158200000000     0.811200000000     0          
H10      H      0.641500000000     0.164000000000     0.784700000000     0          
C20      C      0.615300000000     0.209300000000     0.906500000000     0          
O5       O      0.926800000000     0.181900000000     0.601800000000     0          
O6       O      0.858500000000     0.143800000000     0.559600000000     0          
O7       O      0.572200000000     0.237500000000     0.898200000000     0          
O8       O      0.641700000000     0.202000000000     0.941400000000     0          
O10      O      0.101600000000     0.221700000000     0.535400000000     0          
C1       C      0.121000000000     0.845500000000     0.593400000000     0          
C2       C      0.150700000000     0.869700000000     0.627000000000     0          
C3       C      0.207500000000     0.898800000000     0.622100000000     0          
H1       H      0.228500000000     0.903700000000     0.597400000000     0          
C4       C      0.233000000000     0.920600000000     0.654500000000     0          
H2       H      0.267200000000     0.942800000000     0.651600000000     0          
C5       C      0.206200000000     0.908700000000     0.692500000000     0          
C6       C      0.153200000000     0.877400000000     0.695800000000     0          
H3       H      0.137300000000     0.868900000000     0.720700000000     0          
C7       C      0.123600000000     0.858700000000     0.663700000000     0          
H4       H      0.085300000000     0.838500000000     0.666300000000     0          
C8       C      0.242700000000     0.924800000000     0.728400000000     0          
C9       C      0.252500000000     0.966400000000     0.735900000000     0          
C10      C      0.280600000000     0.979700000000     0.772100000000     0          
C11      C      0.306300000000     0.950100000000     0.799900000000     0          
H5       H      0.329900000000     0.958400000000     0.823200000000     0          
C12      C      0.295500000000     0.909100000000     0.791600000000     0          
C13      C      0.265100000000     0.897300000000     0.756800000000     0          
H6       H      0.259100000000     0.868900000000     0.751900000000     0          
C14      C      0.315700000000     0.877900000000     0.821900000000     0          
C15      C      0.292900000000     0.884700000000     0.859700000000     0          
H7       H      0.261000000000     0.907000000000     0.866200000000     0          
C16      C      0.319500000000     0.857000000000     0.888100000000     0          
H8       H      0.307700000000     0.861800000000     0.914500000000     0          
C17      C      0.363000000000     0.822300000000     0.878200000000     0          
C18      C      0.374100000000     0.813900000000     0.839000000000     0          
H9       H      0.397700000000     0.789100000000     0.831300000000     0          
C19      C      0.350500000000     0.841800000000     0.811200000000     0          
H10      H      0.358500000000     0.836000000000     0.784700000000     0          
C20      C      0.384700000000     0.790700000000     0.906500000000     0          
O5       O      0.073200000000     0.818100000000     0.601800000000     0          
O6       O      0.141500000000     0.856200000000     0.559600000000     0          
O7       O      0.427800000000     0.762500000000     0.898200000000     0          
O8       O      0.358300000000     0.798000000000     0.941400000000     0          
O10      O      0.898400000000     0.778300000000     0.535400000000     0          
C1       C      0.621000000000     0.654500000000     0.093400000000     0          
C2       C      0.650700000000     0.630300000000     0.127000000000     0          
C3       C      0.707500000000     0.601200000000     0.122100000000     0          
H1       H      0.728500000000     0.596300000000     0.097400000000     0          
C4       C      0.733000000000     0.579400000000     0.154500000000     0          
H2       H      0.767200000000     0.557200000000     0.151600000000     0          
C5       C      0.706200000000     0.591300000000     0.192500000000     0          
C6       C      0.653200000000     0.622600000000     0.195800000000     0          
H3       H      0.637300000000     0.631100000000     0.220700000000     0          
C7       C      0.623600000000     0.641300000000     0.163700000000     0          
H4       H      0.585300000000     0.661500000000     0.166300000000     0          
C8       C      0.742700000000     0.575200000000     0.228400000000     0          
C9       C      0.752500000000     0.533600000000     0.235900000000     0          
C10      C      0.780600000000     0.520300000000     0.272100000000     0          
C11      C      0.806300000000     0.549900000000     0.299900000000     0          
H5       H      0.829900000000     0.541600000000     0.323200000000     0          
C12      C      0.795500000000     0.590900000000     0.291600000000     0          
C13      C      0.765100000000     0.602700000000     0.256800000000     0          
H6       H      0.759100000000     0.631100000000     0.251900000000     0          
C14      C      0.815700000000     0.622100000000     0.321900000000     0          
C15      C      0.792900000000     0.615300000000     0.359700000000     0          
H7       H      0.761000000000     0.593000000000     0.366200000000     0          
C16      C      0.819500000000     0.643000000000     0.388100000000     0          
H8       H      0.807700000000     0.638200000000     0.414500000000     0          
C17      C      0.863000000000     0.677700000000     0.378200000000     0          
C18      C      0.874100000000     0.686100000000     0.339000000000     0          
H9       H      0.897700000000     0.710900000000     0.331300000000     0          
C19      C      0.850500000000     0.658200000000     0.311200000000     0          
H10      H      0.858500000000     0.664000000000     0.284700000000     0          
C20      C      0.884700000000     0.709300000000     0.406500000000     0          
O5       O      0.573200000000     0.681900000000     0.101800000000     0          
O6       O      0.641500000000     0.643800000000     0.059600000000     0          
O7       O      0.927800000000     0.737500000000     0.398200000000     0          
O8       O      0.858300000000     0.702000000000     0.441400000000     0          
O10      O      0.398400000000     0.721700000000     0.035400000000     0          
N1       N      0.730100000000     0.500000000000     0.213400000000     0          
H11      H      0.707500000000     0.500000000000     0.190700000000     0          
O1       O      0.500000000000     0.667400000000     0.033300000000     0          
O3       O      0.500000000000     0.773200000000     0.032500000000     0          
Zr2      Zr     0.500000000000     0.722050000000     0.070120000000     0          
Zr1      Zr     0.399560000000     0.666950000000     0.000000000000     0          
Zr3      Zr     0.400000000000     0.775870000000     0.000000000000     0          
C1       C      0.379000000000     0.345500000000     0.093400000000     0          
C2       C      0.349300000000     0.369700000000     0.127000000000     0          
C3       C      0.292500000000     0.398800000000     0.122100000000     0          
H1       H      0.271500000000     0.403700000000     0.097400000000     0          
C4       C      0.267000000000     0.420600000000     0.154500000000     0          
H2       H      0.232800000000     0.442800000000     0.151600000000     0          
C5       C      0.293800000000     0.408700000000     0.192500000000     0          
C6       C      0.346800000000     0.377400000000     0.195800000000     0          
H3       H      0.362700000000     0.368900000000     0.220700000000     0          
C7       C      0.376400000000     0.358700000000     0.163700000000     0          
H4       H      0.414700000000     0.338500000000     0.166300000000     0          
C8       C      0.257300000000     0.424800000000     0.228400000000     0          
C9       C      0.247500000000     0.466400000000     0.235900000000     0          
C10      C      0.219400000000     0.479700000000     0.272100000000     0          
C11      C      0.193700000000     0.450100000000     0.299900000000     0          
H5       H      0.170100000000     0.458400000000     0.323200000000     0          
C12      C      0.204500000000     0.409100000000     0.291600000000     0          
C13      C      0.234900000000     0.397300000000     0.256800000000     0          
H6       H      0.240900000000     0.368900000000     0.251900000000     0          
C14      C      0.184300000000     0.377900000000     0.321900000000     0          
C15      C      0.207100000000     0.384700000000     0.359700000000     0          
H7       H      0.239000000000     0.407000000000     0.366200000000     0          
C16      C      0.180500000000     0.357000000000     0.388100000000     0          
H8       H      0.192300000000     0.361800000000     0.414500000000     0          
C17      C      0.137000000000     0.322300000000     0.378200000000     0          
C18      C      0.125900000000     0.313900000000     0.339000000000     0          
H9       H      0.102300000000     0.289100000000     0.331300000000     0          
C19      C      0.149500000000     0.341800000000     0.311200000000     0          
H10      H      0.141500000000     0.336000000000     0.284700000000     0          
C20      C      0.115300000000     0.290700000000     0.406500000000     0          
O5       O      0.426800000000     0.318100000000     0.101800000000     0          
O6       O      0.358500000000     0.356200000000     0.059600000000     0          
O7       O      0.072200000000     0.262500000000     0.398200000000     0          
O8       O      0.141700000000     0.298000000000     0.441400000000     0          
O10      O      0.601600000000     0.278300000000     0.035400000000     0          
N1       N      0.269900000000     0.500000000000     0.213400000000     0          
H11      H      0.292500000000     0.500000000000     0.190700000000     0          
O1       O      0.500000000000     0.332600000000     0.033300000000     0          
O3       O      0.500000000000     0.226800000000     0.032500000000     0          
Zr2      Zr     0.500000000000     0.277950000000     0.070120000000     0          
Zr1      Zr     0.600440000000     0.333050000000     0.000000000000     0          
Zr3      Zr     0.600000000000     0.224130000000     0.000000000000     0          
C1       C      0.621000000000     0.345500000000     0.906600000000     0          
C2       C      0.650700000000     0.369700000000     0.873000000000     0          
C3       C      0.707500000000     0.398800000000     0.877900000000     0          
H1       H      0.728500000000     0.403700000000     0.902600000000     0          
C4       C      0.733000000000     0.420600000000     0.845500000000     0          
H2       H      0.767200000000     0.442800000000     0.848400000000     0          
C5       C      0.706200000000     0.408700000000     0.807500000000     0          
C6       C      0.653200000000     0.377400000000     0.804200000000     0          
H3       H      0.637300000000     0.368900000000     0.779300000000     0          
C7       C      0.623600000000     0.358700000000     0.836300000000     0          
H4       H      0.585300000000     0.338500000000     0.833700000000     0          
C8       C      0.742700000000     0.424800000000     0.771600000000     0          
C9       C      0.752500000000     0.466400000000     0.764100000000     0          
C10      C      0.780600000000     0.479700000000     0.727900000000     0          
C11      C      0.806300000000     0.450100000000     0.700100000000     0          
H5       H      0.829900000000     0.458400000000     0.676800000000     0          
C12      C      0.795500000000     0.409100000000     0.708400000000     0          
C13      C      0.765100000000     0.397300000000     0.743200000000     0          
H6       H      0.759100000000     0.368900000000     0.748100000000     0          
C14      C      0.815700000000     0.377900000000     0.678100000000     0          
C15      C      0.792900000000     0.384700000000     0.640300000000     0          
H7       H      0.761000000000     0.407000000000     0.633800000000     0          
C16      C      0.819500000000     0.357000000000     0.611900000000     0          
H8       H      0.807700000000     0.361800000000     0.585500000000     0          
C17      C      0.863000000000     0.322300000000     0.621800000000     0          
C18      C      0.874100000000     0.313900000000     0.661000000000     0          
H9       H      0.897700000000     0.289100000000     0.668700000000     0          
C19      C      0.850500000000     0.341800000000     0.688800000000     0          
H10      H      0.858500000000     0.336000000000     0.715300000000     0          
C20      C      0.884700000000     0.290700000000     0.593500000000     0          
O5       O      0.573200000000     0.318100000000     0.898200000000     0          
O6       O      0.641500000000     0.356200000000     0.940400000000     0          
O7       O      0.927800000000     0.262500000000     0.601800000000     0          
O8       O      0.858300000000     0.298000000000     0.558600000000     0          
O10      O      0.398400000000     0.278300000000     0.964600000000     0          
N1       N      0.730100000000     0.500000000000     0.786600000000     0          
H11      H      0.707500000000     0.500000000000     0.809300000000     0          
O1       O      0.500000000000     0.332600000000     0.966700000000     0          
O3       O      0.500000000000     0.226800000000     0.967500000000     0          
Zr2      Zr     0.500000000000     0.277950000000     0.929880000000     0          
Zr1      Zr     0.399560000000     0.333050000000     0.000000000000     0          
Zr3      Zr     0.400000000000     0.224130000000     0.000000000000     0          
C1       C      0.379000000000     0.654500000000     0.906600000000     0          
C2       C      0.349300000000     0.630300000000     0.873000000000     0          
C3       C      0.292500000000     0.601200000000     0.877900000000     0          
H1       H      0.271500000000     0.596300000000     0.902600000000     0          
C4       C      0.267000000000     0.579400000000     0.845500000000     0          
H2       H      0.232800000000     0.557200000000     0.848400000000     0          
C5       C      0.293800000000     0.591300000000     0.807500000000     0          
C6       C      0.346800000000     0.622600000000     0.804200000000     0          
H3       H      0.362700000000     0.631100000000     0.779300000000     0          
C7       C      0.376400000000     0.641300000000     0.836300000000     0          
H4       H      0.414700000000     0.661500000000     0.833700000000     0          
C8       C      0.257300000000     0.575200000000     0.771600000000     0          
C9       C      0.247500000000     0.533600000000     0.764100000000     0          
C10      C      0.219400000000     0.520300000000     0.727900000000     0          
C11      C      0.193700000000     0.549900000000     0.700100000000     0          
H5       H      0.170100000000     0.541600000000     0.676800000000     0          
C12      C      0.204500000000     0.590900000000     0.708400000000     0          
C13      C      0.234900000000     0.602700000000     0.743200000000     0          
H6       H      0.240900000000     0.631100000000     0.748100000000     0          
C14      C      0.184300000000     0.622100000000     0.678100000000     0          
C15      C      0.207100000000     0.615300000000     0.640300000000     0          
H7       H      0.239000000000     0.593000000000     0.633800000000     0          
C16      C      0.180500000000     0.643000000000     0.611900000000     0          
H8       H      0.192300000000     0.638200000000     0.585500000000     0          
C17      C      0.137000000000     0.677700000000     0.621800000000     0          
C18      C      0.125900000000     0.686100000000     0.661000000000     0          
H9       H      0.102300000000     0.710900000000     0.668700000000     0          
C19      C      0.149500000000     0.658200000000     0.688800000000     0          
H10      H      0.141500000000     0.664000000000     0.715300000000     0          
C20      C      0.115300000000     0.709300000000     0.593500000000     0          
O5       O      0.426800000000     0.681900000000     0.898200000000     0          
O6       O      0.358500000000     0.643800000000     0.940400000000     0          
O7       O      0.072200000000     0.737500000000     0.601800000000     0          
O8       O      0.141700000000     0.702000000000     0.558600000000     0          
O10      O      0.601600000000     0.721700000000     0.964600000000     0          
N1       N      0.269900000000     0.500000000000     0.786600000000     0          
H11      H      0.292500000000     0.500000000000     0.809300000000     0          
O1       O      0.500000000000     0.667400000000     0.966700000000     0          
O3       O      0.500000000000     0.773200000000     0.967500000000     0          
Zr2      Zr     0.500000000000     0.722050000000     0.929880000000     0          
Zr1      Zr     0.600440000000     0.666950000000     0.000000000000     0          
Zr3      Zr     0.600000000000     0.775870000000     0.000000000000     0          
C1       C      0.379000000000     0.345500000000     0.906600000000     0          
C2       C      0.349300000000     0.369700000000     0.873000000000     0          
C3       C      0.292500000000     0.398800000000     0.877900000000     0          
H1       H      0.271500000000     0.403700000000     0.902600000000     0          
C4       C      0.267000000000     0.420600000000     0.845500000000     0          
H2       H      0.232800000000     0.442800000000     0.848400000000     0          
C5       C      0.293800000000     0.408700000000     0.807500000000     0          
C6       C      0.346800000000     0.377400000000     0.804200000000     0          
H3       H      0.362700000000     0.368900000000     0.779300000000     0          
C7       C      0.376400000000     0.358700000000     0.836300000000     0          
H4       H      0.414700000000     0.338500000000     0.833700000000     0          
C8       C      0.257300000000     0.424800000000     0.771600000000     0          
C9       C      0.247500000000     0.466400000000     0.764100000000     0          
C10      C      0.219400000000     0.479700000000     0.727900000000     0          
C11      C      0.193700000000     0.450100000000     0.700100000000     0          
H5       H      0.170100000000     0.458400000000     0.676800000000     0          
C12      C      0.204500000000     0.409100000000     0.708400000000     0          
C13      C      0.234900000000     0.397300000000     0.743200000000     0          
H6       H      0.240900000000     0.368900000000     0.748100000000     0          
C14      C      0.184300000000     0.377900000000     0.678100000000     0          
C15      C      0.207100000000     0.384700000000     0.640300000000     0          
H7       H      0.239000000000     0.407000000000     0.633800000000     0          
C16      C      0.180500000000     0.357000000000     0.611900000000     0          
H8       H      0.192300000000     0.361800000000     0.585500000000     0          
C17      C      0.137000000000     0.322300000000     0.621800000000     0          
C18      C      0.125900000000     0.313900000000     0.661000000000     0          
H9       H      0.102300000000     0.289100000000     0.668700000000     0          
C19      C      0.149500000000     0.341800000000     0.688800000000     0          
H10      H      0.141500000000     0.336000000000     0.715300000000     0          
C20      C      0.115300000000     0.290700000000     0.593500000000     0          
O5       O      0.426800000000     0.318100000000     0.898200000000     0          
O6       O      0.358500000000     0.356200000000     0.940400000000     0          
O7       O      0.072200000000     0.262500000000     0.601800000000     0          
O8       O      0.141700000000     0.298000000000     0.558600000000     0          
O10      O      0.601600000000     0.278300000000     0.964600000000     0          
C1       C      0.621000000000     0.654500000000     0.906600000000     0          
C2       C      0.650700000000     0.630300000000     0.873000000000     0          
C3       C      0.707500000000     0.601200000000     0.877900000000     0          
H1       H      0.728500000000     0.596300000000     0.902600000000     0          
C4       C      0.733000000000     0.579400000000     0.845500000000     0          
H2       H      0.767200000000     0.557200000000     0.848400000000     0          
C5       C      0.706200000000     0.591300000000     0.807500000000     0          
C6       C      0.653200000000     0.622600000000     0.804200000000     0          
H3       H      0.637300000000     0.631100000000     0.779300000000     0          
C7       C      0.623600000000     0.641300000000     0.836300000000     0          
H4       H      0.585300000000     0.661500000000     0.833700000000     0          
C8       C      0.742700000000     0.575200000000     0.771600000000     0          
C9       C      0.752500000000     0.533600000000     0.764100000000     0          
C10      C      0.780600000000     0.520300000000     0.727900000000     0          
C11      C      0.806300000000     0.549900000000     0.700100000000     0          
H5       H      0.829900000000     0.541600000000     0.676800000000     0          
C12      C      0.795500000000     0.590900000000     0.708400000000     0          
C13      C      0.765100000000     0.602700000000     0.743200000000     0          
H6       H      0.759100000000     0.631100000000     0.748100000000     0          
C14      C      0.815700000000     0.622100000000     0.678100000000     0          
C15      C      0.792900000000     0.615300000000     0.640300000000     0          
H7       H      0.761000000000     0.593000000000     0.633800000000     0          
C16      C      0.819500000000     0.643000000000     0.611900000000     0          
H8       H      0.807700000000     0.638200000000     0.585500000000     0          
C17      C      0.863000000000     0.677700000000     0.621800000000     0          
C18      C      0.874100000000     0.686100000000     0.661000000000     0          
H9       H      0.897700000000     0.710900000000     0.668700000000     0          
C19      C      0.850500000000     0.658200000000     0.688800000000     0          
H10      H      0.858500000000     0.664000000000     0.715300000000     0          
C20      C      0.884700000000     0.709300000000     0.593500000000     0          
O5       O      0.573200000000     0.681900000000     0.898200000000     0          
O6       O      0.641500000000     0.643800000000     0.940400000000     0          
O7       O      0.927800000000     0.737500000000     0.601800000000     0          
O8       O      0.858300000000     0.702000000000     0.558600000000     0          
O10      O      0.398400000000     0.721700000000     0.964600000000     0          
C1       C      0.379000000000     0.654500000000     0.093400000000     0          
C2       C      0.349300000000     0.630300000000     0.127000000000     0          
C3       C      0.292500000000     0.601200000000     0.122100000000     0          
H1       H      0.271500000000     0.596300000000     0.097400000000     0          
C4       C      0.267000000000     0.579400000000     0.154500000000     0          
H2       H      0.232800000000     0.557200000000     0.151600000000     0          
C5       C      0.293800000000     0.591300000000     0.192500000000     0          
C6       C      0.346800000000     0.622600000000     0.195800000000     0          
H3       H      0.362700000000     0.631100000000     0.220700000000     0          
C7       C      0.376400000000     0.641300000000     0.163700000000     0          
H4       H      0.414700000000     0.661500000000     0.166300000000     0          
C8       C      0.257300000000     0.575200000000     0.228400000000     0          
C9       C      0.247500000000     0.533600000000     0.235900000000     0          
C10      C      0.219400000000     0.520300000000     0.272100000000     0          
C11      C      0.193700000000     0.549900000000     0.299900000000     0          
H5       H      0.170100000000     0.541600000000     0.323200000000     0          
C12      C      0.204500000000     0.590900000000     0.291600000000     0          
C13      C      0.234900000000     0.602700000000     0.256800000000     0          
H6       H      0.240900000000     0.631100000000     0.251900000000     0          
C14      C      0.184300000000     0.622100000000     0.321900000000     0          
C15      C      0.207100000000     0.615300000000     0.359700000000     0          
H7       H      0.239000000000     0.593000000000     0.366200000000     0          
C16      C      0.180500000000     0.643000000000     0.388100000000     0          
H8       H      0.192300000000     0.638200000000     0.414500000000     0          
C17      C      0.137000000000     0.677700000000     0.378200000000     0          
C18      C      0.125900000000     0.686100000000     0.339000000000     0          
H9       H      0.102300000000     0.710900000000     0.331300000000     0          
C19      C      0.149500000000     0.658200000000     0.311200000000     0          
H10      H      0.141500000000     0.664000000000     0.284700000000     0          
C20      C      0.115300000000     0.709300000000     0.406500000000     0          
O5       O      0.426800000000     0.681900000000     0.101800000000     0          
O6       O      0.358500000000     0.643800000000     0.059600000000     0          
O7       O      0.072200000000     0.737500000000     0.398200000000     0          
O8       O      0.141700000000     0.702000000000     0.441400000000     0          
O10      O      0.601600000000     0.721700000000     0.035400000000     0          
C1       C      0.621000000000     0.345500000000     0.093400000000     0          
C2       C      0.650700000000     0.369700000000     0.127000000000     0          
C3       C      0.707500000000     0.398800000000     0.122100000000     0          
H1       H      0.728500000000     0.403700000000     0.097400000000     0          
C4       C      0.733000000000     0.420600000000     0.154500000000     0          
H2       H      0.767200000000     0.442800000000     0.151600000000     0          
C5       C      0.706200000000     0.408700000000     0.192500000000     0          
C6       C      0.653200000000     0.377400000000     0.195800000000     0          
H3       H      0.637300000000     0.368900000000     0.220700000000     0          
C7       C      0.623600000000     0.358700000000     0.163700000000     0          
H4       H      0.585300000000     0.338500000000     0.166300000000     0          
C8       C      0.742700000000     0.424800000000     0.228400000000     0          
C9       C      0.752500000000     0.466400000000     0.235900000000     0          
C10      C      0.780600000000     0.479700000000     0.272100000000     0          
C11      C      0.806300000000     0.450100000000     0.299900000000     0          
H5       H      0.829900000000     0.458400000000     0.323200000000     0          
C12      C      0.795500000000     0.409100000000     0.291600000000     0          
C13      C      0.765100000000     0.397300000000     0.256800000000     0          
H6       H      0.759100000000     0.368900000000     0.251900000000     0          
C14      C      0.815700000000     0.377900000000     0.321900000000     0          
C15      C      0.792900000000     0.384700000000     0.359700000000     0          
H7       H      0.761000000000     0.407000000000     0.366200000000     0          
C16      C      0.819500000000     0.357000000000     0.388100000000     0          
H8       H      0.807700000000     0.361800000000     0.414500000000     0          
C17      C      0.863000000000     0.322300000000     0.378200000000     0          
C18      C      0.874100000000     0.313900000000     0.339000000000     0          
H9       H      0.897700000000     0.289100000000     0.331300000000     0          
C19      C      0.850500000000     0.341800000000     0.311200000000     0          
H10      H      0.858500000000     0.336000000000     0.284700000000     0          
C20      C      0.884700000000     0.290700000000     0.406500000000     0          
O5       O      0.573200000000     0.318100000000     0.101800000000     0          
O6       O      0.641500000000     0.356200000000     0.059600000000     0          
O7       O      0.927800000000     0.262500000000     0.398200000000     0          
O8       O      0.858300000000     0.298000000000     0.441400000000     0          
O10      O      0.398400000000     0.278300000000     0.035400000000     0          


