data_GINTOP

_audit_creation_method RASPA-1.0
_audit_creation_date 2020-11-2
_audit_author_name 'Rocio Bueno-Perez'

_cell_length_a    24.627
_cell_length_b    36.7534
_cell_length_c    39.9531
_cell_angle_alpha 90
_cell_angle_beta  90
_cell_angle_gamma 90
_cell_volume      36162.6

_symmetry_cell_setting          orthorhombic
_symmetry_space_group_name_Hall 'P 1'
_symmetry_space_group_name_H-M  'P 1'
_symmetry_Int_Tables_number     1

_symmetry_equiv_pos_as_xyz 'x,y,z'

loop_
_atom_site_label
_atom_site_type_symbol
_atom_site_fract_x
_atom_site_fract_y
_atom_site_fract_z
_atom_site_charge
O1       O      0.445970000000     0.273160000000     0.089920000000     0          
O2       O      0.054230000000     0.299420000000     0.410250000000     0          
O3       O      0.400180000000     0.303500000000     0.050390000000     0          
O5       O      0.100600000000     0.331220000000     0.448680000000     0          
O6       O      0.072040000000     0.264130000000     0.529970000000     0          
C1       C      0.088700000000     0.322920000000     0.418740000000     0          
C2       C      0.413900000000     0.297350000000     0.079910000000     0          
C3       C      0.117400000000     0.342210000000     0.391120000000     0          
C4       C      0.157600000000     0.366210000000     0.397050000000     0          
H2       H      0.168400000000     0.371000000000     0.419500000000     0          
C5       C      0.389300000000     0.322700000000     0.105300000000     0          
C6       C      0.183900000000     0.384340000000     0.370660000000     0          
C7       C      0.375100000000     0.341600000000     0.162680000000     0          
C8       C      0.274400000000     0.468970000000     0.279420000000     0          
C9       C      0.307400000000     0.479290000000     0.252760000000     0          
C10      C      0.350200000000     0.373000000000     0.151400000000     0          
C11      C      0.165300000000     0.375800000000     0.337150000000     0          
C12      C      0.396400000000     0.315570000000     0.138850000000     0          
H3       H      0.414700000000     0.294200000000     0.146100000000     0          
C13      C      0.263900000000     0.432700000000     0.284490000000     0          
C14      C      0.327100000000     0.455200000000     0.229180000000     0          
H4       H      0.346800000000     0.463400000000     0.210200000000     0          
C15      C      0.362600000000     0.355300000000     0.094660000000     0          
H5       H      0.358600000000     0.360400000000     0.071500000000     0          
C16      C      0.339200000000     0.391200000000     0.209800000000     0          
C17      C      0.317400000000     0.419950000000     0.234340000000     0          
C18      C      0.227000000000     0.408800000000     0.376390000000     0          
H6       H      0.238200000000     0.414800000000     0.398400000000     0          
C19      C      0.332200000000     0.398900000000     0.175240000000     0          
H7       H      0.315700000000     0.421000000000     0.168200000000     0          
C20      C      0.288400000000     0.408090000000     0.263200000000     0          
C21      C      0.231600000000     0.415400000000     0.314320000000     0          
C22      C      0.101000000000     0.335800000000     0.358360000000     0          
H8       H      0.072200000000     0.319000000000     0.354700000000     0          
C23      C      0.361200000000     0.359300000000     0.221100000000     0          
H9       H      0.362200000000     0.353600000000     0.244300000000     0          
C24      C      0.190100000000     0.392000000000     0.306500000000     0          
H10      H      0.178500000000     0.386700000000     0.284300000000     0          
C25      C      0.342800000000     0.379300000000     0.118100000000     0          
H11      H      0.323800000000     0.400500000000     0.111000000000     0          
C26      C      0.124200000000     0.352300000000     0.331110000000     0          
H12      H      0.112000000000     0.347400000000     0.309000000000     0          
C27      C      0.252200000000     0.423500000000     0.348800000000     0          
H13      H      0.282800000000     0.439000000000     0.351600000000     0          
C28      C      0.382700000000     0.334900000000     0.196600000000     0          
H14      H      0.402300000000     0.313900000000     0.203500000000     0          
Zr1      Zr     0.000000000000     0.264020000000     0.438570000000     0          
O4       O      0.000000000000     0.313290000000     0.469240000000     0          
O7       O      0.000000000000     0.215160000000     0.468820000000     0          
Zr2      Zr     0.072090000000     0.312210000000     0.500000000000     0          
Zr3      Zr     0.070870000000     0.215930000000     0.500000000000     0          
N1       N      0.254300000000     0.500000000000     0.296320000000     0          
H1       H      0.233200000000     0.500000000000     0.314100000000     0          
O1       O      0.554030000000     0.726840000000     0.089920000000     0          
O2       O      0.945770000000     0.700580000000     0.410250000000     0          
O3       O      0.599820000000     0.696500000000     0.050390000000     0          
O5       O      0.899400000000     0.668780000000     0.448680000000     0          
O6       O      0.927960000000     0.735870000000     0.529970000000     0          
C1       C      0.911300000000     0.677080000000     0.418740000000     0          
C2       C      0.586100000000     0.702650000000     0.079910000000     0          
C3       C      0.882600000000     0.657790000000     0.391120000000     0          
C4       C      0.842400000000     0.633790000000     0.397050000000     0          
H2       H      0.831600000000     0.629000000000     0.419500000000     0          
C5       C      0.610700000000     0.677300000000     0.105300000000     0          
C6       C      0.816100000000     0.615660000000     0.370660000000     0          
C7       C      0.624900000000     0.658400000000     0.162680000000     0          
C8       C      0.725600000000     0.531030000000     0.279420000000     0          
C9       C      0.692600000000     0.520710000000     0.252760000000     0          
C10      C      0.649800000000     0.627000000000     0.151400000000     0          
C11      C      0.834700000000     0.624200000000     0.337150000000     0          
C12      C      0.603600000000     0.684430000000     0.138850000000     0          
H3       H      0.585300000000     0.705800000000     0.146100000000     0          
C13      C      0.736100000000     0.567300000000     0.284490000000     0          
C14      C      0.672900000000     0.544800000000     0.229180000000     0          
H4       H      0.653200000000     0.536600000000     0.210200000000     0          
C15      C      0.637400000000     0.644700000000     0.094660000000     0          
H5       H      0.641400000000     0.639600000000     0.071500000000     0          
C16      C      0.660800000000     0.608800000000     0.209800000000     0          
C17      C      0.682600000000     0.580050000000     0.234340000000     0          
C18      C      0.773000000000     0.591200000000     0.376390000000     0          
H6       H      0.761800000000     0.585200000000     0.398400000000     0          
C19      C      0.667800000000     0.601100000000     0.175240000000     0          
H7       H      0.684300000000     0.579000000000     0.168200000000     0          
C20      C      0.711600000000     0.591910000000     0.263200000000     0          
C21      C      0.768400000000     0.584600000000     0.314320000000     0          
C22      C      0.899000000000     0.664200000000     0.358360000000     0          
H8       H      0.927800000000     0.681000000000     0.354700000000     0          
C23      C      0.638800000000     0.640700000000     0.221100000000     0          
H9       H      0.637800000000     0.646400000000     0.244300000000     0          
C24      C      0.809900000000     0.608000000000     0.306500000000     0          
H10      H      0.821500000000     0.613300000000     0.284300000000     0          
C25      C      0.657200000000     0.620700000000     0.118100000000     0          
H11      H      0.676200000000     0.599500000000     0.111000000000     0          
C26      C      0.875800000000     0.647700000000     0.331110000000     0          
H12      H      0.888000000000     0.652600000000     0.309000000000     0          
C27      C      0.747800000000     0.576500000000     0.348800000000     0          
H13      H      0.717200000000     0.561000000000     0.351600000000     0          
C28      C      0.617300000000     0.665100000000     0.196600000000     0          
H14      H      0.597700000000     0.686100000000     0.203500000000     0          
Zr1      Zr     0.000000000000     0.735980000000     0.438570000000     0          
O4       O      0.000000000000     0.686710000000     0.469240000000     0          
O7       O      0.000000000000     0.784840000000     0.468820000000     0          
Zr2      Zr     0.927910000000     0.687790000000     0.500000000000     0          
Zr3      Zr     0.929130000000     0.784070000000     0.500000000000     0          
N1       N      0.745700000000     0.500000000000     0.296320000000     0          
H1       H      0.766800000000     0.500000000000     0.314100000000     0          
O1       O      0.445970000000     0.726840000000     0.910080000000     0          
O2       O      0.054230000000     0.700580000000     0.589750000000     0          
O3       O      0.400180000000     0.696500000000     0.949610000000     0          
O5       O      0.100600000000     0.668780000000     0.551320000000     0          
O6       O      0.072040000000     0.735870000000     0.470030000000     0          
C1       C      0.088700000000     0.677080000000     0.581260000000     0          
C2       C      0.413900000000     0.702650000000     0.920090000000     0          
C3       C      0.117400000000     0.657790000000     0.608880000000     0          
C4       C      0.157600000000     0.633790000000     0.602950000000     0          
H2       H      0.168400000000     0.629000000000     0.580500000000     0          
C5       C      0.389300000000     0.677300000000     0.894700000000     0          
C6       C      0.183900000000     0.615660000000     0.629340000000     0          
C7       C      0.375100000000     0.658400000000     0.837320000000     0          
C8       C      0.274400000000     0.531030000000     0.720580000000     0          
C9       C      0.307400000000     0.520710000000     0.747240000000     0          
C10      C      0.350200000000     0.627000000000     0.848600000000     0          
C11      C      0.165300000000     0.624200000000     0.662850000000     0          
C12      C      0.396400000000     0.684430000000     0.861150000000     0          
H3       H      0.414700000000     0.705800000000     0.853900000000     0          
C13      C      0.263900000000     0.567300000000     0.715510000000     0          
C14      C      0.327100000000     0.544800000000     0.770820000000     0          
H4       H      0.346800000000     0.536600000000     0.789800000000     0          
C15      C      0.362600000000     0.644700000000     0.905340000000     0          
H5       H      0.358600000000     0.639600000000     0.928500000000     0          
C16      C      0.339200000000     0.608800000000     0.790200000000     0          
C17      C      0.317400000000     0.580050000000     0.765660000000     0          
C18      C      0.227000000000     0.591200000000     0.623610000000     0          
H6       H      0.238200000000     0.585200000000     0.601600000000     0          
C19      C      0.332200000000     0.601100000000     0.824760000000     0          
H7       H      0.315700000000     0.579000000000     0.831800000000     0          
C20      C      0.288400000000     0.591910000000     0.736800000000     0          
C21      C      0.231600000000     0.584600000000     0.685680000000     0          
C22      C      0.101000000000     0.664200000000     0.641640000000     0          
H8       H      0.072200000000     0.681000000000     0.645300000000     0          
C23      C      0.361200000000     0.640700000000     0.778900000000     0          
H9       H      0.362200000000     0.646400000000     0.755700000000     0          
C24      C      0.190100000000     0.608000000000     0.693500000000     0          
H10      H      0.178500000000     0.613300000000     0.715700000000     0          
C25      C      0.342800000000     0.620700000000     0.881900000000     0          
H11      H      0.323800000000     0.599500000000     0.889000000000     0          
C26      C      0.124200000000     0.647700000000     0.668890000000     0          
H12      H      0.112000000000     0.652600000000     0.691000000000     0          
C27      C      0.252200000000     0.576500000000     0.651200000000     0          
H13      H      0.282800000000     0.561000000000     0.648400000000     0          
C28      C      0.382700000000     0.665100000000     0.803400000000     0          
H14      H      0.402300000000     0.686100000000     0.796500000000     0          
Zr1      Zr     0.000000000000     0.735980000000     0.561430000000     0          
O4       O      0.000000000000     0.686710000000     0.530760000000     0          
O7       O      0.000000000000     0.784840000000     0.531180000000     0          
Zr2      Zr     0.072090000000     0.687790000000     0.500000000000     0          
Zr3      Zr     0.070870000000     0.784070000000     0.500000000000     0          
N1       N      0.254300000000     0.500000000000     0.703680000000     0          
H1       H      0.233200000000     0.500000000000     0.685900000000     0          
O1       O      0.554030000000     0.273160000000     0.910080000000     0          
O2       O      0.945770000000     0.299420000000     0.589750000000     0          
O3       O      0.599820000000     0.303500000000     0.949610000000     0          
O5       O      0.899400000000     0.331220000000     0.551320000000     0          
O6       O      0.927960000000     0.264130000000     0.470030000000     0          
C1       C      0.911300000000     0.322920000000     0.581260000000     0          
C2       C      0.586100000000     0.297350000000     0.920090000000     0          
C3       C      0.882600000000     0.342210000000     0.608880000000     0          
C4       C      0.842400000000     0.366210000000     0.602950000000     0          
H2       H      0.831600000000     0.371000000000     0.580500000000     0          
C5       C      0.610700000000     0.322700000000     0.894700000000     0          
C6       C      0.816100000000     0.384340000000     0.629340000000     0          
C7       C      0.624900000000     0.341600000000     0.837320000000     0          
C8       C      0.725600000000     0.468970000000     0.720580000000     0          
C9       C      0.692600000000     0.479290000000     0.747240000000     0          
C10      C      0.649800000000     0.373000000000     0.848600000000     0          
C11      C      0.834700000000     0.375800000000     0.662850000000     0          
C12      C      0.603600000000     0.315570000000     0.861150000000     0          
H3       H      0.585300000000     0.294200000000     0.853900000000     0          
C13      C      0.736100000000     0.432700000000     0.715510000000     0          
C14      C      0.672900000000     0.455200000000     0.770820000000     0          
H4       H      0.653200000000     0.463400000000     0.789800000000     0          
C15      C      0.637400000000     0.355300000000     0.905340000000     0          
H5       H      0.641400000000     0.360400000000     0.928500000000     0          
C16      C      0.660800000000     0.391200000000     0.790200000000     0          
C17      C      0.682600000000     0.419950000000     0.765660000000     0          
C18      C      0.773000000000     0.408800000000     0.623610000000     0          
H6       H      0.761800000000     0.414800000000     0.601600000000     0          
C19      C      0.667800000000     0.398900000000     0.824760000000     0          
H7       H      0.684300000000     0.421000000000     0.831800000000     0          
C20      C      0.711600000000     0.408090000000     0.736800000000     0          
C21      C      0.768400000000     0.415400000000     0.685680000000     0          
C22      C      0.899000000000     0.335800000000     0.641640000000     0          
H8       H      0.927800000000     0.319000000000     0.645300000000     0          
C23      C      0.638800000000     0.359300000000     0.778900000000     0          
H9       H      0.637800000000     0.353600000000     0.755700000000     0          
C24      C      0.809900000000     0.392000000000     0.693500000000     0          
H10      H      0.821500000000     0.386700000000     0.715700000000     0          
C25      C      0.657200000000     0.379300000000     0.881900000000     0          
H11      H      0.676200000000     0.400500000000     0.889000000000     0          
C26      C      0.875800000000     0.352300000000     0.668890000000     0          
H12      H      0.888000000000     0.347400000000     0.691000000000     0          
C27      C      0.747800000000     0.423500000000     0.651200000000     0          
H13      H      0.717200000000     0.439000000000     0.648400000000     0          
C28      C      0.617300000000     0.334900000000     0.803400000000     0          
H14      H      0.597700000000     0.313900000000     0.796500000000     0          
Zr1      Zr     0.000000000000     0.264020000000     0.561430000000     0          
O4       O      0.000000000000     0.313290000000     0.530760000000     0          
O7       O      0.000000000000     0.215160000000     0.531180000000     0          
Zr2      Zr     0.927910000000     0.312210000000     0.500000000000     0          
Zr3      Zr     0.929130000000     0.215930000000     0.500000000000     0          
N1       N      0.745700000000     0.500000000000     0.703680000000     0          
H1       H      0.766800000000     0.500000000000     0.685900000000     0          
O1       O      0.554030000000     0.726840000000     0.910080000000     0          
O2       O      0.945770000000     0.700580000000     0.589750000000     0          
O3       O      0.599820000000     0.696500000000     0.949610000000     0          
O5       O      0.899400000000     0.668780000000     0.551320000000     0          
O6       O      0.927960000000     0.735870000000     0.470030000000     0          
C1       C      0.911300000000     0.677080000000     0.581260000000     0          
C2       C      0.586100000000     0.702650000000     0.920090000000     0          
C3       C      0.882600000000     0.657790000000     0.608880000000     0          
C4       C      0.842400000000     0.633790000000     0.602950000000     0          
H2       H      0.831600000000     0.629000000000     0.580500000000     0          
C5       C      0.610700000000     0.677300000000     0.894700000000     0          
C6       C      0.816100000000     0.615660000000     0.629340000000     0          
C7       C      0.624900000000     0.658400000000     0.837320000000     0          
C8       C      0.725600000000     0.531030000000     0.720580000000     0          
C9       C      0.692600000000     0.520710000000     0.747240000000     0          
C10      C      0.649800000000     0.627000000000     0.848600000000     0          
C11      C      0.834700000000     0.624200000000     0.662850000000     0          
C12      C      0.603600000000     0.684430000000     0.861150000000     0          
H3       H      0.585300000000     0.705800000000     0.853900000000     0          
C13      C      0.736100000000     0.567300000000     0.715510000000     0          
C14      C      0.672900000000     0.544800000000     0.770820000000     0          
H4       H      0.653200000000     0.536600000000     0.789800000000     0          
C15      C      0.637400000000     0.644700000000     0.905340000000     0          
H5       H      0.641400000000     0.639600000000     0.928500000000     0          
C16      C      0.660800000000     0.608800000000     0.790200000000     0          
C17      C      0.682600000000     0.580050000000     0.765660000000     0          
C18      C      0.773000000000     0.591200000000     0.623610000000     0          
H6       H      0.761800000000     0.585200000000     0.601600000000     0          
C19      C      0.667800000000     0.601100000000     0.824760000000     0          
H7       H      0.684300000000     0.579000000000     0.831800000000     0          
C20      C      0.711600000000     0.591910000000     0.736800000000     0          
C21      C      0.768400000000     0.584600000000     0.685680000000     0          
C22      C      0.899000000000     0.664200000000     0.641640000000     0          
H8       H      0.927800000000     0.681000000000     0.645300000000     0          
C23      C      0.638800000000     0.640700000000     0.778900000000     0          
H9       H      0.637800000000     0.646400000000     0.755700000000     0          
C24      C      0.809900000000     0.608000000000     0.693500000000     0          
H10      H      0.821500000000     0.613300000000     0.715700000000     0          
C25      C      0.657200000000     0.620700000000     0.881900000000     0          
H11      H      0.676200000000     0.599500000000     0.889000000000     0          
C26      C      0.875800000000     0.647700000000     0.668890000000     0          
H12      H      0.888000000000     0.652600000000     0.691000000000     0          
C27      C      0.747800000000     0.576500000000     0.651200000000     0          
H13      H      0.717200000000     0.561000000000     0.648400000000     0          
C28      C      0.617300000000     0.665100000000     0.803400000000     0          
H14      H      0.597700000000     0.686100000000     0.796500000000     0          
O1       O      0.445970000000     0.273160000000     0.910080000000     0          
O2       O      0.054230000000     0.299420000000     0.589750000000     0          
O3       O      0.400180000000     0.303500000000     0.949610000000     0          
O5       O      0.100600000000     0.331220000000     0.551320000000     0          
O6       O      0.072040000000     0.264130000000     0.470030000000     0          
C1       C      0.088700000000     0.322920000000     0.581260000000     0          
C2       C      0.413900000000     0.297350000000     0.920090000000     0          
C3       C      0.117400000000     0.342210000000     0.608880000000     0          
C4       C      0.157600000000     0.366210000000     0.602950000000     0          
H2       H      0.168400000000     0.371000000000     0.580500000000     0          
C5       C      0.389300000000     0.322700000000     0.894700000000     0          
C6       C      0.183900000000     0.384340000000     0.629340000000     0          
C7       C      0.375100000000     0.341600000000     0.837320000000     0          
C8       C      0.274400000000     0.468970000000     0.720580000000     0          
C9       C      0.307400000000     0.479290000000     0.747240000000     0          
C10      C      0.350200000000     0.373000000000     0.848600000000     0          
C11      C      0.165300000000     0.375800000000     0.662850000000     0          
C12      C      0.396400000000     0.315570000000     0.861150000000     0          
H3       H      0.414700000000     0.294200000000     0.853900000000     0          
C13      C      0.263900000000     0.432700000000     0.715510000000     0          
C14      C      0.327100000000     0.455200000000     0.770820000000     0          
H4       H      0.346800000000     0.463400000000     0.789800000000     0          
C15      C      0.362600000000     0.355300000000     0.905340000000     0          
H5       H      0.358600000000     0.360400000000     0.928500000000     0          
C16      C      0.339200000000     0.391200000000     0.790200000000     0          
C17      C      0.317400000000     0.419950000000     0.765660000000     0          
C18      C      0.227000000000     0.408800000000     0.623610000000     0          
H6       H      0.238200000000     0.414800000000     0.601600000000     0          
C19      C      0.332200000000     0.398900000000     0.824760000000     0          
H7       H      0.315700000000     0.421000000000     0.831800000000     0          
C20      C      0.288400000000     0.408090000000     0.736800000000     0          
C21      C      0.231600000000     0.415400000000     0.685680000000     0          
C22      C      0.101000000000     0.335800000000     0.641640000000     0          
H8       H      0.072200000000     0.319000000000     0.645300000000     0          
C23      C      0.361200000000     0.359300000000     0.778900000000     0          
H9       H      0.362200000000     0.353600000000     0.755700000000     0          
C24      C      0.190100000000     0.392000000000     0.693500000000     0          
H10      H      0.178500000000     0.386700000000     0.715700000000     0          
C25      C      0.342800000000     0.379300000000     0.881900000000     0          
H11      H      0.323800000000     0.400500000000     0.889000000000     0          
C26      C      0.124200000000     0.352300000000     0.668890000000     0          
H12      H      0.112000000000     0.347400000000     0.691000000000     0          
C27      C      0.252200000000     0.423500000000     0.651200000000     0          
H13      H      0.282800000000     0.439000000000     0.648400000000     0          
C28      C      0.382700000000     0.334900000000     0.803400000000     0          
H14      H      0.402300000000     0.313900000000     0.796500000000     0          
O1       O      0.554030000000     0.273160000000     0.089920000000     0          
O2       O      0.945770000000     0.299420000000     0.410250000000     0          
O3       O      0.599820000000     0.303500000000     0.050390000000     0          
O5       O      0.899400000000     0.331220000000     0.448680000000     0          
O6       O      0.927960000000     0.264130000000     0.529970000000     0          
C1       C      0.911300000000     0.322920000000     0.418740000000     0          
C2       C      0.586100000000     0.297350000000     0.079910000000     0          
C3       C      0.882600000000     0.342210000000     0.391120000000     0          
C4       C      0.842400000000     0.366210000000     0.397050000000     0          
H2       H      0.831600000000     0.371000000000     0.419500000000     0          
C5       C      0.610700000000     0.322700000000     0.105300000000     0          
C6       C      0.816100000000     0.384340000000     0.370660000000     0          
C7       C      0.624900000000     0.341600000000     0.162680000000     0          
C8       C      0.725600000000     0.468970000000     0.279420000000     0          
C9       C      0.692600000000     0.479290000000     0.252760000000     0          
C10      C      0.649800000000     0.373000000000     0.151400000000     0          
C11      C      0.834700000000     0.375800000000     0.337150000000     0          
C12      C      0.603600000000     0.315570000000     0.138850000000     0          
H3       H      0.585300000000     0.294200000000     0.146100000000     0          
C13      C      0.736100000000     0.432700000000     0.284490000000     0          
C14      C      0.672900000000     0.455200000000     0.229180000000     0          
H4       H      0.653200000000     0.463400000000     0.210200000000     0          
C15      C      0.637400000000     0.355300000000     0.094660000000     0          
H5       H      0.641400000000     0.360400000000     0.071500000000     0          
C16      C      0.660800000000     0.391200000000     0.209800000000     0          
C17      C      0.682600000000     0.419950000000     0.234340000000     0          
C18      C      0.773000000000     0.408800000000     0.376390000000     0          
H6       H      0.761800000000     0.414800000000     0.398400000000     0          
C19      C      0.667800000000     0.398900000000     0.175240000000     0          
H7       H      0.684300000000     0.421000000000     0.168200000000     0          
C20      C      0.711600000000     0.408090000000     0.263200000000     0          
C21      C      0.768400000000     0.415400000000     0.314320000000     0          
C22      C      0.899000000000     0.335800000000     0.358360000000     0          
H8       H      0.927800000000     0.319000000000     0.354700000000     0          
C23      C      0.638800000000     0.359300000000     0.221100000000     0          
H9       H      0.637800000000     0.353600000000     0.244300000000     0          
C24      C      0.809900000000     0.392000000000     0.306500000000     0          
H10      H      0.821500000000     0.386700000000     0.284300000000     0          
C25      C      0.657200000000     0.379300000000     0.118100000000     0          
H11      H      0.676200000000     0.400500000000     0.111000000000     0          
C26      C      0.875800000000     0.352300000000     0.331110000000     0          
H12      H      0.888000000000     0.347400000000     0.309000000000     0          
C27      C      0.747800000000     0.423500000000     0.348800000000     0          
H13      H      0.717200000000     0.439000000000     0.351600000000     0          
C28      C      0.617300000000     0.334900000000     0.196600000000     0          
H14      H      0.597700000000     0.313900000000     0.203500000000     0          
O1       O      0.445970000000     0.726840000000     0.089920000000     0          
O2       O      0.054230000000     0.700580000000     0.410250000000     0          
O3       O      0.400180000000     0.696500000000     0.050390000000     0          
O5       O      0.100600000000     0.668780000000     0.448680000000     0          
O6       O      0.072040000000     0.735870000000     0.529970000000     0          
C1       C      0.088700000000     0.677080000000     0.418740000000     0          
C2       C      0.413900000000     0.702650000000     0.079910000000     0          
C3       C      0.117400000000     0.657790000000     0.391120000000     0          
C4       C      0.157600000000     0.633790000000     0.397050000000     0          
H2       H      0.168400000000     0.629000000000     0.419500000000     0          
C5       C      0.389300000000     0.677300000000     0.105300000000     0          
C6       C      0.183900000000     0.615660000000     0.370660000000     0          
C7       C      0.375100000000     0.658400000000     0.162680000000     0          
C8       C      0.274400000000     0.531030000000     0.279420000000     0          
C9       C      0.307400000000     0.520710000000     0.252760000000     0          
C10      C      0.350200000000     0.627000000000     0.151400000000     0          
C11      C      0.165300000000     0.624200000000     0.337150000000     0          
C12      C      0.396400000000     0.684430000000     0.138850000000     0          
H3       H      0.414700000000     0.705800000000     0.146100000000     0          
C13      C      0.263900000000     0.567300000000     0.284490000000     0          
C14      C      0.327100000000     0.544800000000     0.229180000000     0          
H4       H      0.346800000000     0.536600000000     0.210200000000     0          
C15      C      0.362600000000     0.644700000000     0.094660000000     0          
H5       H      0.358600000000     0.639600000000     0.071500000000     0          
C16      C      0.339200000000     0.608800000000     0.209800000000     0          
C17      C      0.317400000000     0.580050000000     0.234340000000     0          
C18      C      0.227000000000     0.591200000000     0.376390000000     0          
H6       H      0.238200000000     0.585200000000     0.398400000000     0          
C19      C      0.332200000000     0.601100000000     0.175240000000     0          
H7       H      0.315700000000     0.579000000000     0.168200000000     0          
C20      C      0.288400000000     0.591910000000     0.263200000000     0          
C21      C      0.231600000000     0.584600000000     0.314320000000     0          
C22      C      0.101000000000     0.664200000000     0.358360000000     0          
H8       H      0.072200000000     0.681000000000     0.354700000000     0          
C23      C      0.361200000000     0.640700000000     0.221100000000     0          
H9       H      0.362200000000     0.646400000000     0.244300000000     0          
C24      C      0.190100000000     0.608000000000     0.306500000000     0          
H10      H      0.178500000000     0.613300000000     0.284300000000     0          
C25      C      0.342800000000     0.620700000000     0.118100000000     0          
H11      H      0.323800000000     0.599500000000     0.111000000000     0          
C26      C      0.124200000000     0.647700000000     0.331110000000     0          
H12      H      0.112000000000     0.652600000000     0.309000000000     0          
C27      C      0.252200000000     0.576500000000     0.348800000000     0          
H13      H      0.282800000000     0.561000000000     0.351600000000     0          
C28      C      0.382700000000     0.665100000000     0.196600000000     0          
H14      H      0.402300000000     0.686100000000     0.203500000000     0          
O1       O      0.945970000000     0.773160000000     0.589920000000     0          
O2       O      0.554230000000     0.799420000000     0.910250000000     0          
O3       O      0.900180000000     0.803500000000     0.550390000000     0          
O5       O      0.600600000000     0.831220000000     0.948680000000     0          
O6       O      0.572040000000     0.764130000000     0.029970000000     0          
C1       C      0.588700000000     0.822920000000     0.918740000000     0          
C2       C      0.913900000000     0.797350000000     0.579910000000     0          
C3       C      0.617400000000     0.842210000000     0.891120000000     0          
C4       C      0.657600000000     0.866210000000     0.897050000000     0          
H2       H      0.668400000000     0.871000000000     0.919500000000     0          
C5       C      0.889300000000     0.822700000000     0.605300000000     0          
C6       C      0.683900000000     0.884340000000     0.870660000000     0          
C7       C      0.875100000000     0.841600000000     0.662680000000     0          
C8       C      0.774400000000     0.968970000000     0.779420000000     0          
C9       C      0.807400000000     0.979290000000     0.752760000000     0          
C10      C      0.850200000000     0.873000000000     0.651400000000     0          
C11      C      0.665300000000     0.875800000000     0.837150000000     0          
C12      C      0.896400000000     0.815570000000     0.638850000000     0          
H3       H      0.914700000000     0.794200000000     0.646100000000     0          
C13      C      0.763900000000     0.932700000000     0.784490000000     0          
C14      C      0.827100000000     0.955200000000     0.729180000000     0          
H4       H      0.846800000000     0.963400000000     0.710200000000     0          
C15      C      0.862600000000     0.855300000000     0.594660000000     0          
H5       H      0.858600000000     0.860400000000     0.571500000000     0          
C16      C      0.839200000000     0.891200000000     0.709800000000     0          
C17      C      0.817400000000     0.919950000000     0.734340000000     0          
C18      C      0.727000000000     0.908800000000     0.876390000000     0          
H6       H      0.738200000000     0.914800000000     0.898400000000     0          
C19      C      0.832200000000     0.898900000000     0.675240000000     0          
H7       H      0.815700000000     0.921000000000     0.668200000000     0          
C20      C      0.788400000000     0.908090000000     0.763200000000     0          
C21      C      0.731600000000     0.915400000000     0.814320000000     0          
C22      C      0.601000000000     0.835800000000     0.858360000000     0          
H8       H      0.572200000000     0.819000000000     0.854700000000     0          
C23      C      0.861200000000     0.859300000000     0.721100000000     0          
H9       H      0.862200000000     0.853600000000     0.744300000000     0          
C24      C      0.690100000000     0.892000000000     0.806500000000     0          
H10      H      0.678500000000     0.886700000000     0.784300000000     0          
C25      C      0.842800000000     0.879300000000     0.618100000000     0          
H11      H      0.823800000000     0.900500000000     0.611000000000     0          
C26      C      0.624200000000     0.852300000000     0.831110000000     0          
H12      H      0.612000000000     0.847400000000     0.809000000000     0          
C27      C      0.752200000000     0.923500000000     0.848800000000     0          
H13      H      0.782800000000     0.939000000000     0.851600000000     0          
C28      C      0.882700000000     0.834900000000     0.696600000000     0          
H14      H      0.902300000000     0.813900000000     0.703500000000     0          
Zr1      Zr     0.500000000000     0.764020000000     0.938570000000     0          
O4       O      0.500000000000     0.813290000000     0.969240000000     0          
O7       O      0.500000000000     0.715160000000     0.968820000000     0          
Zr2      Zr     0.572090000000     0.812210000000     0.000000000000     0          
Zr3      Zr     0.570870000000     0.715930000000     0.000000000000     0          
N1       N      0.754300000000     0.000000000000     0.796320000000     0          
H1       H      0.733200000000     0.000000000000     0.814100000000     0          
O1       O      0.054030000000     0.226840000000     0.589920000000     0          
O2       O      0.445770000000     0.200580000000     0.910250000000     0          
O3       O      0.099820000000     0.196500000000     0.550390000000     0          
O5       O      0.399400000000     0.168780000000     0.948680000000     0          
O6       O      0.427960000000     0.235870000000     0.029970000000     0          
C1       C      0.411300000000     0.177080000000     0.918740000000     0          
C2       C      0.086100000000     0.202650000000     0.579910000000     0          
C3       C      0.382600000000     0.157790000000     0.891120000000     0          
C4       C      0.342400000000     0.133790000000     0.897050000000     0          
H2       H      0.331600000000     0.129000000000     0.919500000000     0          
C5       C      0.110700000000     0.177300000000     0.605300000000     0          
C6       C      0.316100000000     0.115660000000     0.870660000000     0          
C7       C      0.124900000000     0.158400000000     0.662680000000     0          
C8       C      0.225600000000     0.031030000000     0.779420000000     0          
C9       C      0.192600000000     0.020710000000     0.752760000000     0          
C10      C      0.149800000000     0.127000000000     0.651400000000     0          
C11      C      0.334700000000     0.124200000000     0.837150000000     0          
C12      C      0.103600000000     0.184430000000     0.638850000000     0          
H3       H      0.085300000000     0.205800000000     0.646100000000     0          
C13      C      0.236100000000     0.067300000000     0.784490000000     0          
C14      C      0.172900000000     0.044800000000     0.729180000000     0          
H4       H      0.153200000000     0.036600000000     0.710200000000     0          
C15      C      0.137400000000     0.144700000000     0.594660000000     0          
H5       H      0.141400000000     0.139600000000     0.571500000000     0          
C16      C      0.160800000000     0.108800000000     0.709800000000     0          
C17      C      0.182600000000     0.080050000000     0.734340000000     0          
C18      C      0.273000000000     0.091200000000     0.876390000000     0          
H6       H      0.261800000000     0.085200000000     0.898400000000     0          
C19      C      0.167800000000     0.101100000000     0.675240000000     0          
H7       H      0.184300000000     0.079000000000     0.668200000000     0          
C20      C      0.211600000000     0.091910000000     0.763200000000     0          
C21      C      0.268400000000     0.084600000000     0.814320000000     0          
C22      C      0.399000000000     0.164200000000     0.858360000000     0          
H8       H      0.427800000000     0.181000000000     0.854700000000     0          
C23      C      0.138800000000     0.140700000000     0.721100000000     0          
H9       H      0.137800000000     0.146400000000     0.744300000000     0          
C24      C      0.309900000000     0.108000000000     0.806500000000     0          
H10      H      0.321500000000     0.113300000000     0.784300000000     0          
C25      C      0.157200000000     0.120700000000     0.618100000000     0          
H11      H      0.176200000000     0.099500000000     0.611000000000     0          
C26      C      0.375800000000     0.147700000000     0.831110000000     0          
H12      H      0.388000000000     0.152600000000     0.809000000000     0          
C27      C      0.247800000000     0.076500000000     0.848800000000     0          
H13      H      0.217200000000     0.061000000000     0.851600000000     0          
C28      C      0.117300000000     0.165100000000     0.696600000000     0          
H14      H      0.097700000000     0.186100000000     0.703500000000     0          
Zr1      Zr     0.500000000000     0.235980000000     0.938570000000     0          
O4       O      0.500000000000     0.186710000000     0.969240000000     0          
O7       O      0.500000000000     0.284840000000     0.968820000000     0          
Zr2      Zr     0.427910000000     0.187790000000     0.000000000000     0          
Zr3      Zr     0.429130000000     0.284070000000     0.000000000000     0          
N1       N      0.245700000000     0.000000000000     0.796320000000     0          
H1       H      0.266800000000     0.000000000000     0.814100000000     0          
O1       O      0.945970000000     0.226840000000     0.410080000000     0          
O2       O      0.554230000000     0.200580000000     0.089750000000     0          
O3       O      0.900180000000     0.196500000000     0.449610000000     0          
O5       O      0.600600000000     0.168780000000     0.051320000000     0          
O6       O      0.572040000000     0.235870000000     0.970030000000     0          
C1       C      0.588700000000     0.177080000000     0.081260000000     0          
C2       C      0.913900000000     0.202650000000     0.420090000000     0          
C3       C      0.617400000000     0.157790000000     0.108880000000     0          
C4       C      0.657600000000     0.133790000000     0.102950000000     0          
H2       H      0.668400000000     0.129000000000     0.080500000000     0          
C5       C      0.889300000000     0.177300000000     0.394700000000     0          
C6       C      0.683900000000     0.115660000000     0.129340000000     0          
C7       C      0.875100000000     0.158400000000     0.337320000000     0          
C8       C      0.774400000000     0.031030000000     0.220580000000     0          
C9       C      0.807400000000     0.020710000000     0.247240000000     0          
C10      C      0.850200000000     0.127000000000     0.348600000000     0          
C11      C      0.665300000000     0.124200000000     0.162850000000     0          
C12      C      0.896400000000     0.184430000000     0.361150000000     0          
H3       H      0.914700000000     0.205800000000     0.353900000000     0          
C13      C      0.763900000000     0.067300000000     0.215510000000     0          
C14      C      0.827100000000     0.044800000000     0.270820000000     0          
H4       H      0.846800000000     0.036600000000     0.289800000000     0          
C15      C      0.862600000000     0.144700000000     0.405340000000     0          
H5       H      0.858600000000     0.139600000000     0.428500000000     0          
C16      C      0.839200000000     0.108800000000     0.290200000000     0          
C17      C      0.817400000000     0.080050000000     0.265660000000     0          
C18      C      0.727000000000     0.091200000000     0.123610000000     0          
H6       H      0.738200000000     0.085200000000     0.101600000000     0          
C19      C      0.832200000000     0.101100000000     0.324760000000     0          
H7       H      0.815700000000     0.079000000000     0.331800000000     0          
C20      C      0.788400000000     0.091910000000     0.236800000000     0          
C21      C      0.731600000000     0.084600000000     0.185680000000     0          
C22      C      0.601000000000     0.164200000000     0.141640000000     0          
H8       H      0.572200000000     0.181000000000     0.145300000000     0          
C23      C      0.861200000000     0.140700000000     0.278900000000     0          
H9       H      0.862200000000     0.146400000000     0.255700000000     0          
C24      C      0.690100000000     0.108000000000     0.193500000000     0          
H10      H      0.678500000000     0.113300000000     0.215700000000     0          
C25      C      0.842800000000     0.120700000000     0.381900000000     0          
H11      H      0.823800000000     0.099500000000     0.389000000000     0          
C26      C      0.624200000000     0.147700000000     0.168890000000     0          
H12      H      0.612000000000     0.152600000000     0.191000000000     0          
C27      C      0.752200000000     0.076500000000     0.151200000000     0          
H13      H      0.782800000000     0.061000000000     0.148400000000     0          
C28      C      0.882700000000     0.165100000000     0.303400000000     0          
H14      H      0.902300000000     0.186100000000     0.296500000000     0          
Zr1      Zr     0.500000000000     0.235980000000     0.061430000000     0          
O4       O      0.500000000000     0.186710000000     0.030760000000     0          
O7       O      0.500000000000     0.284840000000     0.031180000000     0          
Zr2      Zr     0.572090000000     0.187790000000     0.000000000000     0          
Zr3      Zr     0.570870000000     0.284070000000     0.000000000000     0          
N1       N      0.754300000000     0.000000000000     0.203680000000     0          
H1       H      0.733200000000     0.000000000000     0.185900000000     0          
O1       O      0.054030000000     0.773160000000     0.410080000000     0          
O2       O      0.445770000000     0.799420000000     0.089750000000     0          
O3       O      0.099820000000     0.803500000000     0.449610000000     0          
O5       O      0.399400000000     0.831220000000     0.051320000000     0          
O6       O      0.427960000000     0.764130000000     0.970030000000     0          
C1       C      0.411300000000     0.822920000000     0.081260000000     0          
C2       C      0.086100000000     0.797350000000     0.420090000000     0          
C3       C      0.382600000000     0.842210000000     0.108880000000     0          
C4       C      0.342400000000     0.866210000000     0.102950000000     0          
H2       H      0.331600000000     0.871000000000     0.080500000000     0          
C5       C      0.110700000000     0.822700000000     0.394700000000     0          
C6       C      0.316100000000     0.884340000000     0.129340000000     0          
C7       C      0.124900000000     0.841600000000     0.337320000000     0          
C8       C      0.225600000000     0.968970000000     0.220580000000     0          
C9       C      0.192600000000     0.979290000000     0.247240000000     0          
C10      C      0.149800000000     0.873000000000     0.348600000000     0          
C11      C      0.334700000000     0.875800000000     0.162850000000     0          
C12      C      0.103600000000     0.815570000000     0.361150000000     0          
H3       H      0.085300000000     0.794200000000     0.353900000000     0          
C13      C      0.236100000000     0.932700000000     0.215510000000     0          
C14      C      0.172900000000     0.955200000000     0.270820000000     0          
H4       H      0.153200000000     0.963400000000     0.289800000000     0          
C15      C      0.137400000000     0.855300000000     0.405340000000     0          
H5       H      0.141400000000     0.860400000000     0.428500000000     0          
C16      C      0.160800000000     0.891200000000     0.290200000000     0          
C17      C      0.182600000000     0.919950000000     0.265660000000     0          
C18      C      0.273000000000     0.908800000000     0.123610000000     0          
H6       H      0.261800000000     0.914800000000     0.101600000000     0          
C19      C      0.167800000000     0.898900000000     0.324760000000     0          
H7       H      0.184300000000     0.921000000000     0.331800000000     0          
C20      C      0.211600000000     0.908090000000     0.236800000000     0          
C21      C      0.268400000000     0.915400000000     0.185680000000     0          
C22      C      0.399000000000     0.835800000000     0.141640000000     0          
H8       H      0.427800000000     0.819000000000     0.145300000000     0          
C23      C      0.138800000000     0.859300000000     0.278900000000     0          
H9       H      0.137800000000     0.853600000000     0.255700000000     0          
C24      C      0.309900000000     0.892000000000     0.193500000000     0          
H10      H      0.321500000000     0.886700000000     0.215700000000     0          
C25      C      0.157200000000     0.879300000000     0.381900000000     0          
H11      H      0.176200000000     0.900500000000     0.389000000000     0          
C26      C      0.375800000000     0.852300000000     0.168890000000     0          
H12      H      0.388000000000     0.847400000000     0.191000000000     0          
C27      C      0.247800000000     0.923500000000     0.151200000000     0          
H13      H      0.217200000000     0.939000000000     0.148400000000     0          
C28      C      0.117300000000     0.834900000000     0.303400000000     0          
H14      H      0.097700000000     0.813900000000     0.296500000000     0          
Zr1      Zr     0.500000000000     0.764020000000     0.061430000000     0          
O4       O      0.500000000000     0.813290000000     0.030760000000     0          
O7       O      0.500000000000     0.715160000000     0.031180000000     0          
Zr2      Zr     0.427910000000     0.812210000000     0.000000000000     0          
Zr3      Zr     0.429130000000     0.715930000000     0.000000000000     0          
N1       N      0.245700000000     0.000000000000     0.203680000000     0          
H1       H      0.266800000000     0.000000000000     0.185900000000     0          
O1       O      0.054030000000     0.226840000000     0.410080000000     0          
O2       O      0.445770000000     0.200580000000     0.089750000000     0          
O3       O      0.099820000000     0.196500000000     0.449610000000     0          
O5       O      0.399400000000     0.168780000000     0.051320000000     0          
O6       O      0.427960000000     0.235870000000     0.970030000000     0          
C1       C      0.411300000000     0.177080000000     0.081260000000     0          
C2       C      0.086100000000     0.202650000000     0.420090000000     0          
C3       C      0.382600000000     0.157790000000     0.108880000000     0          
C4       C      0.342400000000     0.133790000000     0.102950000000     0          
H2       H      0.331600000000     0.129000000000     0.080500000000     0          
C5       C      0.110700000000     0.177300000000     0.394700000000     0          
C6       C      0.316100000000     0.115660000000     0.129340000000     0          
C7       C      0.124900000000     0.158400000000     0.337320000000     0          
C8       C      0.225600000000     0.031030000000     0.220580000000     0          
C9       C      0.192600000000     0.020710000000     0.247240000000     0          
C10      C      0.149800000000     0.127000000000     0.348600000000     0          
C11      C      0.334700000000     0.124200000000     0.162850000000     0          
C12      C      0.103600000000     0.184430000000     0.361150000000     0          
H3       H      0.085300000000     0.205800000000     0.353900000000     0          
C13      C      0.236100000000     0.067300000000     0.215510000000     0          
C14      C      0.172900000000     0.044800000000     0.270820000000     0          
H4       H      0.153200000000     0.036600000000     0.289800000000     0          
C15      C      0.137400000000     0.144700000000     0.405340000000     0          
H5       H      0.141400000000     0.139600000000     0.428500000000     0          
C16      C      0.160800000000     0.108800000000     0.290200000000     0          
C17      C      0.182600000000     0.080050000000     0.265660000000     0          
C18      C      0.273000000000     0.091200000000     0.123610000000     0          
H6       H      0.261800000000     0.085200000000     0.101600000000     0          
C19      C      0.167800000000     0.101100000000     0.324760000000     0          
H7       H      0.184300000000     0.079000000000     0.331800000000     0          
C20      C      0.211600000000     0.091910000000     0.236800000000     0          
C21      C      0.268400000000     0.084600000000     0.185680000000     0          
C22      C      0.399000000000     0.164200000000     0.141640000000     0          
H8       H      0.427800000000     0.181000000000     0.145300000000     0          
C23      C      0.138800000000     0.140700000000     0.278900000000     0          
H9       H      0.137800000000     0.146400000000     0.255700000000     0          
C24      C      0.309900000000     0.108000000000     0.193500000000     0          
H10      H      0.321500000000     0.113300000000     0.215700000000     0          
C25      C      0.157200000000     0.120700000000     0.381900000000     0          
H11      H      0.176200000000     0.099500000000     0.389000000000     0          
C26      C      0.375800000000     0.147700000000     0.168890000000     0          
H12      H      0.388000000000     0.152600000000     0.191000000000     0          
C27      C      0.247800000000     0.076500000000     0.151200000000     0          
H13      H      0.217200000000     0.061000000000     0.148400000000     0          
C28      C      0.117300000000     0.165100000000     0.303400000000     0          
H14      H      0.097700000000     0.186100000000     0.296500000000     0          
O1       O      0.945970000000     0.773160000000     0.410080000000     0          
O2       O      0.554230000000     0.799420000000     0.089750000000     0          
O3       O      0.900180000000     0.803500000000     0.449610000000     0          
O5       O      0.600600000000     0.831220000000     0.051320000000     0          
O6       O      0.572040000000     0.764130000000     0.970030000000     0          
C1       C      0.588700000000     0.822920000000     0.081260000000     0          
C2       C      0.913900000000     0.797350000000     0.420090000000     0          
C3       C      0.617400000000     0.842210000000     0.108880000000     0          
C4       C      0.657600000000     0.866210000000     0.102950000000     0          
H2       H      0.668400000000     0.871000000000     0.080500000000     0          
C5       C      0.889300000000     0.822700000000     0.394700000000     0          
C6       C      0.683900000000     0.884340000000     0.129340000000     0          
C7       C      0.875100000000     0.841600000000     0.337320000000     0          
C8       C      0.774400000000     0.968970000000     0.220580000000     0          
C9       C      0.807400000000     0.979290000000     0.247240000000     0          
C10      C      0.850200000000     0.873000000000     0.348600000000     0          
C11      C      0.665300000000     0.875800000000     0.162850000000     0          
C12      C      0.896400000000     0.815570000000     0.361150000000     0          
H3       H      0.914700000000     0.794200000000     0.353900000000     0          
C13      C      0.763900000000     0.932700000000     0.215510000000     0          
C14      C      0.827100000000     0.955200000000     0.270820000000     0          
H4       H      0.846800000000     0.963400000000     0.289800000000     0          
C15      C      0.862600000000     0.855300000000     0.405340000000     0          
H5       H      0.858600000000     0.860400000000     0.428500000000     0          
C16      C      0.839200000000     0.891200000000     0.290200000000     0          
C17      C      0.817400000000     0.919950000000     0.265660000000     0          
C18      C      0.727000000000     0.908800000000     0.123610000000     0          
H6       H      0.738200000000     0.914800000000     0.101600000000     0          
C19      C      0.832200000000     0.898900000000     0.324760000000     0          
H7       H      0.815700000000     0.921000000000     0.331800000000     0          
C20      C      0.788400000000     0.908090000000     0.236800000000     0          
C21      C      0.731600000000     0.915400000000     0.185680000000     0          
C22      C      0.601000000000     0.835800000000     0.141640000000     0          
H8       H      0.572200000000     0.819000000000     0.145300000000     0          
C23      C      0.861200000000     0.859300000000     0.278900000000     0          
H9       H      0.862200000000     0.853600000000     0.255700000000     0          
C24      C      0.690100000000     0.892000000000     0.193500000000     0          
H10      H      0.678500000000     0.886700000000     0.215700000000     0          
C25      C      0.842800000000     0.879300000000     0.381900000000     0          
H11      H      0.823800000000     0.900500000000     0.389000000000     0          
C26      C      0.624200000000     0.852300000000     0.168890000000     0          
H12      H      0.612000000000     0.847400000000     0.191000000000     0          
C27      C      0.752200000000     0.923500000000     0.151200000000     0          
H13      H      0.782800000000     0.939000000000     0.148400000000     0          
C28      C      0.882700000000     0.834900000000     0.303400000000     0          
H14      H      0.902300000000     0.813900000000     0.296500000000     0          
O1       O      0.054030000000     0.773160000000     0.589920000000     0          
O2       O      0.445770000000     0.799420000000     0.910250000000     0          
O3       O      0.099820000000     0.803500000000     0.550390000000     0          
O5       O      0.399400000000     0.831220000000     0.948680000000     0          
O6       O      0.427960000000     0.764130000000     0.029970000000     0          
C1       C      0.411300000000     0.822920000000     0.918740000000     0          
C2       C      0.086100000000     0.797350000000     0.579910000000     0          
C3       C      0.382600000000     0.842210000000     0.891120000000     0          
C4       C      0.342400000000     0.866210000000     0.897050000000     0          
H2       H      0.331600000000     0.871000000000     0.919500000000     0          
C5       C      0.110700000000     0.822700000000     0.605300000000     0          
C6       C      0.316100000000     0.884340000000     0.870660000000     0          
C7       C      0.124900000000     0.841600000000     0.662680000000     0          
C8       C      0.225600000000     0.968970000000     0.779420000000     0          
C9       C      0.192600000000     0.979290000000     0.752760000000     0          
C10      C      0.149800000000     0.873000000000     0.651400000000     0          
C11      C      0.334700000000     0.875800000000     0.837150000000     0          
C12      C      0.103600000000     0.815570000000     0.638850000000     0          
H3       H      0.085300000000     0.794200000000     0.646100000000     0          
C13      C      0.236100000000     0.932700000000     0.784490000000     0          
C14      C      0.172900000000     0.955200000000     0.729180000000     0          
H4       H      0.153200000000     0.963400000000     0.710200000000     0          
C15      C      0.137400000000     0.855300000000     0.594660000000     0          
H5       H      0.141400000000     0.860400000000     0.571500000000     0          
C16      C      0.160800000000     0.891200000000     0.709800000000     0          
C17      C      0.182600000000     0.919950000000     0.734340000000     0          
C18      C      0.273000000000     0.908800000000     0.876390000000     0          
H6       H      0.261800000000     0.914800000000     0.898400000000     0          
C19      C      0.167800000000     0.898900000000     0.675240000000     0          
H7       H      0.184300000000     0.921000000000     0.668200000000     0          
C20      C      0.211600000000     0.908090000000     0.763200000000     0          
C21      C      0.268400000000     0.915400000000     0.814320000000     0          
C22      C      0.399000000000     0.835800000000     0.858360000000     0          
H8       H      0.427800000000     0.819000000000     0.854700000000     0          
C23      C      0.138800000000     0.859300000000     0.721100000000     0          
H9       H      0.137800000000     0.853600000000     0.744300000000     0          
C24      C      0.309900000000     0.892000000000     0.806500000000     0          
H10      H      0.321500000000     0.886700000000     0.784300000000     0          
C25      C      0.157200000000     0.879300000000     0.618100000000     0          
H11      H      0.176200000000     0.900500000000     0.611000000000     0          
C26      C      0.375800000000     0.852300000000     0.831110000000     0          
H12      H      0.388000000000     0.847400000000     0.809000000000     0          
C27      C      0.247800000000     0.923500000000     0.848800000000     0          
H13      H      0.217200000000     0.939000000000     0.851600000000     0          
C28      C      0.117300000000     0.834900000000     0.696600000000     0          
H14      H      0.097700000000     0.813900000000     0.703500000000     0          
O1       O      0.945970000000     0.226840000000     0.589920000000     0          
O2       O      0.554230000000     0.200580000000     0.910250000000     0          
O3       O      0.900180000000     0.196500000000     0.550390000000     0          
O5       O      0.600600000000     0.168780000000     0.948680000000     0          
O6       O      0.572040000000     0.235870000000     0.029970000000     0          
C1       C      0.588700000000     0.177080000000     0.918740000000     0          
C2       C      0.913900000000     0.202650000000     0.579910000000     0          
C3       C      0.617400000000     0.157790000000     0.891120000000     0          
C4       C      0.657600000000     0.133790000000     0.897050000000     0          
H2       H      0.668400000000     0.129000000000     0.919500000000     0          
C5       C      0.889300000000     0.177300000000     0.605300000000     0          
C6       C      0.683900000000     0.115660000000     0.870660000000     0          
C7       C      0.875100000000     0.158400000000     0.662680000000     0          
C8       C      0.774400000000     0.031030000000     0.779420000000     0          
C9       C      0.807400000000     0.020710000000     0.752760000000     0          
C10      C      0.850200000000     0.127000000000     0.651400000000     0          
C11      C      0.665300000000     0.124200000000     0.837150000000     0          
C12      C      0.896400000000     0.184430000000     0.638850000000     0          
H3       H      0.914700000000     0.205800000000     0.646100000000     0          
C13      C      0.763900000000     0.067300000000     0.784490000000     0          
C14      C      0.827100000000     0.044800000000     0.729180000000     0          
H4       H      0.846800000000     0.036600000000     0.710200000000     0          
C15      C      0.862600000000     0.144700000000     0.594660000000     0          
H5       H      0.858600000000     0.139600000000     0.571500000000     0          
C16      C      0.839200000000     0.108800000000     0.709800000000     0          
C17      C      0.817400000000     0.080050000000     0.734340000000     0          
C18      C      0.727000000000     0.091200000000     0.876390000000     0          
H6       H      0.738200000000     0.085200000000     0.898400000000     0          
C19      C      0.832200000000     0.101100000000     0.675240000000     0          
H7       H      0.815700000000     0.079000000000     0.668200000000     0          
C20      C      0.788400000000     0.091910000000     0.763200000000     0          
C21      C      0.731600000000     0.084600000000     0.814320000000     0          
C22      C      0.601000000000     0.164200000000     0.858360000000     0          
H8       H      0.572200000000     0.181000000000     0.854700000000     0          
C23      C      0.861200000000     0.140700000000     0.721100000000     0          
H9       H      0.862200000000     0.146400000000     0.744300000000     0          
C24      C      0.690100000000     0.108000000000     0.806500000000     0          
H10      H      0.678500000000     0.113300000000     0.784300000000     0          
C25      C      0.842800000000     0.120700000000     0.618100000000     0          
H11      H      0.823800000000     0.099500000000     0.611000000000     0          
C26      C      0.624200000000     0.147700000000     0.831110000000     0          
H12      H      0.612000000000     0.152600000000     0.809000000000     0          
C27      C      0.752200000000     0.076500000000     0.848800000000     0          
H13      H      0.782800000000     0.061000000000     0.851600000000     0          
C28      C      0.882700000000     0.165100000000     0.696600000000     0          
H14      H      0.902300000000     0.186100000000     0.703500000000     0          


