data_GINWUY

_audit_creation_method RASPA-1.0
_audit_creation_date 2020-11-2
_audit_author_name 'Rocio Bueno-Perez'

_cell_length_a    22.249
_cell_length_b    31.0425
_cell_length_c    33.0217
_cell_angle_alpha 90
_cell_angle_beta  90
_cell_angle_gamma 90
_cell_volume      22806.9

_symmetry_cell_setting          orthorhombic
_symmetry_space_group_name_Hall 'P 1'
_symmetry_space_group_name_H-M  'P 1'
_symmetry_Int_Tables_number     1

_symmetry_equiv_pos_as_xyz 'x,y,z'

loop_
_atom_site_label
_atom_site_type_symbol
_atom_site_fract_x
_atom_site_fract_y
_atom_site_fract_z
_atom_site_charge
O1       O      0.439420000000     0.335460000000     0.391720000000     0          
O2       O      0.388400000000     0.373720000000     0.438310000000     0          
O5       O      0.579300000000     0.293680000000     0.463490000000     0          
C1       C      0.359000000000     0.377800000000     0.369960000000     0          
C2       C      0.312600000000     0.406600000000     0.377600000000     0          
H2       H      0.306200000000     0.416100000000     0.404000000000     0          
C3       C      0.398700000000     0.361200000000     0.402790000000     0          
C4       C      0.283100000000     0.405900000000     0.307290000000     0          
C5       C      0.328700000000     0.376800000000     0.299520000000     0          
H3       H      0.333700000000     0.366300000000     0.273400000000     0          
C6       C      0.136800000000     0.332200000000     0.196100000000     0          
H4       H      0.133200000000     0.326300000000     0.223600000000     0          
C7       C      0.367500000000     0.362900000000     0.330040000000     0          
H5       H      0.398700000000     0.344100000000     0.324100000000     0          
C8       C      0.275800000000     0.421400000000     0.347210000000     0          
H6       H      0.246100000000     0.441600000000     0.352900000000     0          
C9       C      0.163300000000     0.370000000000     0.183800000000     0          
C10      C      0.196100000000     0.476750000000     0.233190000000     0          
C11      C      0.121600000000     0.310900000000     0.126470000000     0          
C12      C      0.230500000000     0.463100000000     0.266480000000     0          
C13      C      0.168500000000     0.377400000000     0.142100000000     0          
H7       H      0.186200000000     0.402900000000     0.133300000000     0          
C14      C      0.173000000000     0.446200000000     0.206390000000     0          
H8       H      0.149700000000     0.454800000000     0.184400000000     0          
C15      C      0.115400000000     0.302500000000     0.167900000000     0          
H9       H      0.097000000000     0.277200000000     0.176600000000     0          
C16      C      0.219000000000     0.390900000000     0.246700000000     0          
H10      H      0.225400000000     0.361700000000     0.251400000000     0          
C17      C      0.185300000000     0.402800000000     0.212900000000     0          
C18      C      0.243500000000     0.420300000000     0.273700000000     0          
C19      C      0.148500000000     0.348900000000     0.114200000000     0          
H11      H      0.152900000000     0.354900000000     0.086800000000     0          
O10      O      0.061100000000     0.251070000000     0.108120000000     0          
O11      O      0.110200000000     0.288140000000     0.059340000000     0          
C20      C      0.096000000000     0.281000000000     0.095890000000     0          
Zr1      Zr     0.500000000000     0.293440000000     0.425390000000     0          
O4       O      0.500000000000     0.349500000000     0.463600000000     0          
O8       O      0.500000000000     0.238100000000     0.463100000000     0          
Zr2      Zr     0.579370000000     0.350230000000     0.500000000000     0          
Zr3      Zr     0.578150000000     0.236660000000     0.500000000000     0          
N1       N      0.251300000000     0.500000000000     0.287300000000     0          
H1       H      0.243600000000     0.500000000000     0.312800000000     0          
O1       O      0.560580000000     0.664540000000     0.391720000000     0          
O2       O      0.611600000000     0.626280000000     0.438310000000     0          
O5       O      0.420700000000     0.706320000000     0.463490000000     0          
C1       C      0.641000000000     0.622200000000     0.369960000000     0          
C2       C      0.687400000000     0.593400000000     0.377600000000     0          
H2       H      0.693800000000     0.583900000000     0.404000000000     0          
C3       C      0.601300000000     0.638800000000     0.402790000000     0          
C4       C      0.716900000000     0.594100000000     0.307290000000     0          
C5       C      0.671300000000     0.623200000000     0.299520000000     0          
H3       H      0.666300000000     0.633700000000     0.273400000000     0          
C6       C      0.863200000000     0.667800000000     0.196100000000     0          
H4       H      0.866800000000     0.673700000000     0.223600000000     0          
C7       C      0.632500000000     0.637100000000     0.330040000000     0          
H5       H      0.601300000000     0.655900000000     0.324100000000     0          
C8       C      0.724200000000     0.578600000000     0.347210000000     0          
H6       H      0.753900000000     0.558400000000     0.352900000000     0          
C9       C      0.836700000000     0.630000000000     0.183800000000     0          
C10      C      0.803900000000     0.523250000000     0.233190000000     0          
C11      C      0.878400000000     0.689100000000     0.126470000000     0          
C12      C      0.769500000000     0.536900000000     0.266480000000     0          
C13      C      0.831500000000     0.622600000000     0.142100000000     0          
H7       H      0.813800000000     0.597100000000     0.133300000000     0          
C14      C      0.827000000000     0.553800000000     0.206390000000     0          
H8       H      0.850300000000     0.545200000000     0.184400000000     0          
C15      C      0.884600000000     0.697500000000     0.167900000000     0          
H9       H      0.903000000000     0.722800000000     0.176600000000     0          
C16      C      0.781000000000     0.609100000000     0.246700000000     0          
H10      H      0.774600000000     0.638300000000     0.251400000000     0          
C17      C      0.814700000000     0.597200000000     0.212900000000     0          
C18      C      0.756500000000     0.579700000000     0.273700000000     0          
C19      C      0.851500000000     0.651100000000     0.114200000000     0          
H11      H      0.847100000000     0.645100000000     0.086800000000     0          
O10      O      0.938900000000     0.748930000000     0.108120000000     0          
O11      O      0.889800000000     0.711860000000     0.059340000000     0          
C20      C      0.904000000000     0.719000000000     0.095890000000     0          
Zr1      Zr     0.500000000000     0.706560000000     0.425390000000     0          
O4       O      0.500000000000     0.650500000000     0.463600000000     0          
O8       O      0.500000000000     0.761900000000     0.463100000000     0          
Zr2      Zr     0.420630000000     0.649770000000     0.500000000000     0          
Zr3      Zr     0.421850000000     0.763340000000     0.500000000000     0          
N1       N      0.748700000000     0.500000000000     0.287300000000     0          
H1       H      0.756400000000     0.500000000000     0.312800000000     0          
O1       O      0.439420000000     0.664540000000     0.608280000000     0          
O2       O      0.388400000000     0.626280000000     0.561690000000     0          
O5       O      0.579300000000     0.706320000000     0.536510000000     0          
C1       C      0.359000000000     0.622200000000     0.630040000000     0          
C2       C      0.312600000000     0.593400000000     0.622400000000     0          
H2       H      0.306200000000     0.583900000000     0.596000000000     0          
C3       C      0.398700000000     0.638800000000     0.597210000000     0          
C4       C      0.283100000000     0.594100000000     0.692710000000     0          
C5       C      0.328700000000     0.623200000000     0.700480000000     0          
H3       H      0.333700000000     0.633700000000     0.726600000000     0          
C6       C      0.136800000000     0.667800000000     0.803900000000     0          
H4       H      0.133200000000     0.673700000000     0.776400000000     0          
C7       C      0.367500000000     0.637100000000     0.669960000000     0          
H5       H      0.398700000000     0.655900000000     0.675900000000     0          
C8       C      0.275800000000     0.578600000000     0.652790000000     0          
H6       H      0.246100000000     0.558400000000     0.647100000000     0          
C9       C      0.163300000000     0.630000000000     0.816200000000     0          
C10      C      0.196100000000     0.523250000000     0.766810000000     0          
C11      C      0.121600000000     0.689100000000     0.873530000000     0          
C12      C      0.230500000000     0.536900000000     0.733520000000     0          
C13      C      0.168500000000     0.622600000000     0.857900000000     0          
H7       H      0.186200000000     0.597100000000     0.866700000000     0          
C14      C      0.173000000000     0.553800000000     0.793610000000     0          
H8       H      0.149700000000     0.545200000000     0.815600000000     0          
C15      C      0.115400000000     0.697500000000     0.832100000000     0          
H9       H      0.097000000000     0.722800000000     0.823400000000     0          
C16      C      0.219000000000     0.609100000000     0.753300000000     0          
H10      H      0.225400000000     0.638300000000     0.748600000000     0          
C17      C      0.185300000000     0.597200000000     0.787100000000     0          
C18      C      0.243500000000     0.579700000000     0.726300000000     0          
C19      C      0.148500000000     0.651100000000     0.885800000000     0          
H11      H      0.152900000000     0.645100000000     0.913200000000     0          
O10      O      0.061100000000     0.748930000000     0.891880000000     0          
O11      O      0.110200000000     0.711860000000     0.940660000000     0          
C20      C      0.096000000000     0.719000000000     0.904110000000     0          
Zr1      Zr     0.500000000000     0.706560000000     0.574610000000     0          
O4       O      0.500000000000     0.650500000000     0.536400000000     0          
O8       O      0.500000000000     0.761900000000     0.536900000000     0          
Zr2      Zr     0.579370000000     0.649770000000     0.500000000000     0          
Zr3      Zr     0.578150000000     0.763340000000     0.500000000000     0          
N1       N      0.251300000000     0.500000000000     0.712700000000     0          
H1       H      0.243600000000     0.500000000000     0.687200000000     0          
O1       O      0.560580000000     0.335460000000     0.608280000000     0          
O2       O      0.611600000000     0.373720000000     0.561690000000     0          
O5       O      0.420700000000     0.293680000000     0.536510000000     0          
C1       C      0.641000000000     0.377800000000     0.630040000000     0          
C2       C      0.687400000000     0.406600000000     0.622400000000     0          
H2       H      0.693800000000     0.416100000000     0.596000000000     0          
C3       C      0.601300000000     0.361200000000     0.597210000000     0          
C4       C      0.716900000000     0.405900000000     0.692710000000     0          
C5       C      0.671300000000     0.376800000000     0.700480000000     0          
H3       H      0.666300000000     0.366300000000     0.726600000000     0          
C6       C      0.863200000000     0.332200000000     0.803900000000     0          
H4       H      0.866800000000     0.326300000000     0.776400000000     0          
C7       C      0.632500000000     0.362900000000     0.669960000000     0          
H5       H      0.601300000000     0.344100000000     0.675900000000     0          
C8       C      0.724200000000     0.421400000000     0.652790000000     0          
H6       H      0.753900000000     0.441600000000     0.647100000000     0          
C9       C      0.836700000000     0.370000000000     0.816200000000     0          
C10      C      0.803900000000     0.476750000000     0.766810000000     0          
C11      C      0.878400000000     0.310900000000     0.873530000000     0          
C12      C      0.769500000000     0.463100000000     0.733520000000     0          
C13      C      0.831500000000     0.377400000000     0.857900000000     0          
H7       H      0.813800000000     0.402900000000     0.866700000000     0          
C14      C      0.827000000000     0.446200000000     0.793610000000     0          
H8       H      0.850300000000     0.454800000000     0.815600000000     0          
C15      C      0.884600000000     0.302500000000     0.832100000000     0          
H9       H      0.903000000000     0.277200000000     0.823400000000     0          
C16      C      0.781000000000     0.390900000000     0.753300000000     0          
H10      H      0.774600000000     0.361700000000     0.748600000000     0          
C17      C      0.814700000000     0.402800000000     0.787100000000     0          
C18      C      0.756500000000     0.420300000000     0.726300000000     0          
C19      C      0.851500000000     0.348900000000     0.885800000000     0          
H11      H      0.847100000000     0.354900000000     0.913200000000     0          
O10      O      0.938900000000     0.251070000000     0.891880000000     0          
O11      O      0.889800000000     0.288140000000     0.940660000000     0          
C20      C      0.904000000000     0.281000000000     0.904110000000     0          
Zr1      Zr     0.500000000000     0.293440000000     0.574610000000     0          
O4       O      0.500000000000     0.349500000000     0.536400000000     0          
O8       O      0.500000000000     0.238100000000     0.536900000000     0          
Zr2      Zr     0.420630000000     0.350230000000     0.500000000000     0          
Zr3      Zr     0.421850000000     0.236660000000     0.500000000000     0          
N1       N      0.748700000000     0.500000000000     0.712700000000     0          
H1       H      0.756400000000     0.500000000000     0.687200000000     0          
O1       O      0.560580000000     0.664540000000     0.608280000000     0          
O2       O      0.611600000000     0.626280000000     0.561690000000     0          
O5       O      0.420700000000     0.706320000000     0.536510000000     0          
C1       C      0.641000000000     0.622200000000     0.630040000000     0          
C2       C      0.687400000000     0.593400000000     0.622400000000     0          
H2       H      0.693800000000     0.583900000000     0.596000000000     0          
C3       C      0.601300000000     0.638800000000     0.597210000000     0          
C4       C      0.716900000000     0.594100000000     0.692710000000     0          
C5       C      0.671300000000     0.623200000000     0.700480000000     0          
H3       H      0.666300000000     0.633700000000     0.726600000000     0          
C6       C      0.863200000000     0.667800000000     0.803900000000     0          
H4       H      0.866800000000     0.673700000000     0.776400000000     0          
C7       C      0.632500000000     0.637100000000     0.669960000000     0          
H5       H      0.601300000000     0.655900000000     0.675900000000     0          
C8       C      0.724200000000     0.578600000000     0.652790000000     0          
H6       H      0.753900000000     0.558400000000     0.647100000000     0          
C9       C      0.836700000000     0.630000000000     0.816200000000     0          
C10      C      0.803900000000     0.523250000000     0.766810000000     0          
C11      C      0.878400000000     0.689100000000     0.873530000000     0          
C12      C      0.769500000000     0.536900000000     0.733520000000     0          
C13      C      0.831500000000     0.622600000000     0.857900000000     0          
H7       H      0.813800000000     0.597100000000     0.866700000000     0          
C14      C      0.827000000000     0.553800000000     0.793610000000     0          
H8       H      0.850300000000     0.545200000000     0.815600000000     0          
C15      C      0.884600000000     0.697500000000     0.832100000000     0          
H9       H      0.903000000000     0.722800000000     0.823400000000     0          
C16      C      0.781000000000     0.609100000000     0.753300000000     0          
H10      H      0.774600000000     0.638300000000     0.748600000000     0          
C17      C      0.814700000000     0.597200000000     0.787100000000     0          
C18      C      0.756500000000     0.579700000000     0.726300000000     0          
C19      C      0.851500000000     0.651100000000     0.885800000000     0          
H11      H      0.847100000000     0.645100000000     0.913200000000     0          
O10      O      0.938900000000     0.748930000000     0.891880000000     0          
O11      O      0.889800000000     0.711860000000     0.940660000000     0          
C20      C      0.904000000000     0.719000000000     0.904110000000     0          
O1       O      0.439420000000     0.335460000000     0.608280000000     0          
O2       O      0.388400000000     0.373720000000     0.561690000000     0          
O5       O      0.579300000000     0.293680000000     0.536510000000     0          
C1       C      0.359000000000     0.377800000000     0.630040000000     0          
C2       C      0.312600000000     0.406600000000     0.622400000000     0          
H2       H      0.306200000000     0.416100000000     0.596000000000     0          
C3       C      0.398700000000     0.361200000000     0.597210000000     0          
C4       C      0.283100000000     0.405900000000     0.692710000000     0          
C5       C      0.328700000000     0.376800000000     0.700480000000     0          
H3       H      0.333700000000     0.366300000000     0.726600000000     0          
C6       C      0.136800000000     0.332200000000     0.803900000000     0          
H4       H      0.133200000000     0.326300000000     0.776400000000     0          
C7       C      0.367500000000     0.362900000000     0.669960000000     0          
H5       H      0.398700000000     0.344100000000     0.675900000000     0          
C8       C      0.275800000000     0.421400000000     0.652790000000     0          
H6       H      0.246100000000     0.441600000000     0.647100000000     0          
C9       C      0.163300000000     0.370000000000     0.816200000000     0          
C10      C      0.196100000000     0.476750000000     0.766810000000     0          
C11      C      0.121600000000     0.310900000000     0.873530000000     0          
C12      C      0.230500000000     0.463100000000     0.733520000000     0          
C13      C      0.168500000000     0.377400000000     0.857900000000     0          
H7       H      0.186200000000     0.402900000000     0.866700000000     0          
C14      C      0.173000000000     0.446200000000     0.793610000000     0          
H8       H      0.149700000000     0.454800000000     0.815600000000     0          
C15      C      0.115400000000     0.302500000000     0.832100000000     0          
H9       H      0.097000000000     0.277200000000     0.823400000000     0          
C16      C      0.219000000000     0.390900000000     0.753300000000     0          
H10      H      0.225400000000     0.361700000000     0.748600000000     0          
C17      C      0.185300000000     0.402800000000     0.787100000000     0          
C18      C      0.243500000000     0.420300000000     0.726300000000     0          
C19      C      0.148500000000     0.348900000000     0.885800000000     0          
H11      H      0.152900000000     0.354900000000     0.913200000000     0          
O10      O      0.061100000000     0.251070000000     0.891880000000     0          
O11      O      0.110200000000     0.288140000000     0.940660000000     0          
C20      C      0.096000000000     0.281000000000     0.904110000000     0          
O1       O      0.560580000000     0.335460000000     0.391720000000     0          
O2       O      0.611600000000     0.373720000000     0.438310000000     0          
O5       O      0.420700000000     0.293680000000     0.463490000000     0          
C1       C      0.641000000000     0.377800000000     0.369960000000     0          
C2       C      0.687400000000     0.406600000000     0.377600000000     0          
H2       H      0.693800000000     0.416100000000     0.404000000000     0          
C3       C      0.601300000000     0.361200000000     0.402790000000     0          
C4       C      0.716900000000     0.405900000000     0.307290000000     0          
C5       C      0.671300000000     0.376800000000     0.299520000000     0          
H3       H      0.666300000000     0.366300000000     0.273400000000     0          
C6       C      0.863200000000     0.332200000000     0.196100000000     0          
H4       H      0.866800000000     0.326300000000     0.223600000000     0          
C7       C      0.632500000000     0.362900000000     0.330040000000     0          
H5       H      0.601300000000     0.344100000000     0.324100000000     0          
C8       C      0.724200000000     0.421400000000     0.347210000000     0          
H6       H      0.753900000000     0.441600000000     0.352900000000     0          
C9       C      0.836700000000     0.370000000000     0.183800000000     0          
C10      C      0.803900000000     0.476750000000     0.233190000000     0          
C11      C      0.878400000000     0.310900000000     0.126470000000     0          
C12      C      0.769500000000     0.463100000000     0.266480000000     0          
C13      C      0.831500000000     0.377400000000     0.142100000000     0          
H7       H      0.813800000000     0.402900000000     0.133300000000     0          
C14      C      0.827000000000     0.446200000000     0.206390000000     0          
H8       H      0.850300000000     0.454800000000     0.184400000000     0          
C15      C      0.884600000000     0.302500000000     0.167900000000     0          
H9       H      0.903000000000     0.277200000000     0.176600000000     0          
C16      C      0.781000000000     0.390900000000     0.246700000000     0          
H10      H      0.774600000000     0.361700000000     0.251400000000     0          
C17      C      0.814700000000     0.402800000000     0.212900000000     0          
C18      C      0.756500000000     0.420300000000     0.273700000000     0          
C19      C      0.851500000000     0.348900000000     0.114200000000     0          
H11      H      0.847100000000     0.354900000000     0.086800000000     0          
O10      O      0.938900000000     0.251070000000     0.108120000000     0          
O11      O      0.889800000000     0.288140000000     0.059340000000     0          
C20      C      0.904000000000     0.281000000000     0.095890000000     0          
O1       O      0.439420000000     0.664540000000     0.391720000000     0          
O2       O      0.388400000000     0.626280000000     0.438310000000     0          
O5       O      0.579300000000     0.706320000000     0.463490000000     0          
C1       C      0.359000000000     0.622200000000     0.369960000000     0          
C2       C      0.312600000000     0.593400000000     0.377600000000     0          
H2       H      0.306200000000     0.583900000000     0.404000000000     0          
C3       C      0.398700000000     0.638800000000     0.402790000000     0          
C4       C      0.283100000000     0.594100000000     0.307290000000     0          
C5       C      0.328700000000     0.623200000000     0.299520000000     0          
H3       H      0.333700000000     0.633700000000     0.273400000000     0          
C6       C      0.136800000000     0.667800000000     0.196100000000     0          
H4       H      0.133200000000     0.673700000000     0.223600000000     0          
C7       C      0.367500000000     0.637100000000     0.330040000000     0          
H5       H      0.398700000000     0.655900000000     0.324100000000     0          
C8       C      0.275800000000     0.578600000000     0.347210000000     0          
H6       H      0.246100000000     0.558400000000     0.352900000000     0          
C9       C      0.163300000000     0.630000000000     0.183800000000     0          
C10      C      0.196100000000     0.523250000000     0.233190000000     0          
C11      C      0.121600000000     0.689100000000     0.126470000000     0          
C12      C      0.230500000000     0.536900000000     0.266480000000     0          
C13      C      0.168500000000     0.622600000000     0.142100000000     0          
H7       H      0.186200000000     0.597100000000     0.133300000000     0          
C14      C      0.173000000000     0.553800000000     0.206390000000     0          
H8       H      0.149700000000     0.545200000000     0.184400000000     0          
C15      C      0.115400000000     0.697500000000     0.167900000000     0          
H9       H      0.097000000000     0.722800000000     0.176600000000     0          
C16      C      0.219000000000     0.609100000000     0.246700000000     0          
H10      H      0.225400000000     0.638300000000     0.251400000000     0          
C17      C      0.185300000000     0.597200000000     0.212900000000     0          
C18      C      0.243500000000     0.579700000000     0.273700000000     0          
C19      C      0.148500000000     0.651100000000     0.114200000000     0          
H11      H      0.152900000000     0.645100000000     0.086800000000     0          
O10      O      0.061100000000     0.748930000000     0.108120000000     0          
O11      O      0.110200000000     0.711860000000     0.059340000000     0          
C20      C      0.096000000000     0.719000000000     0.095890000000     0          
O1       O      0.939420000000     0.835460000000     0.891720000000     0          
O2       O      0.888400000000     0.873720000000     0.938310000000     0          
O5       O      0.079300000000     0.793680000000     0.963490000000     0          
C1       C      0.859000000000     0.877800000000     0.869960000000     0          
C2       C      0.812600000000     0.906600000000     0.877600000000     0          
H2       H      0.806200000000     0.916100000000     0.904000000000     0          
C3       C      0.898700000000     0.861200000000     0.902790000000     0          
C4       C      0.783100000000     0.905900000000     0.807290000000     0          
C5       C      0.828700000000     0.876800000000     0.799520000000     0          
H3       H      0.833700000000     0.866300000000     0.773400000000     0          
C6       C      0.636800000000     0.832200000000     0.696100000000     0          
H4       H      0.633200000000     0.826300000000     0.723600000000     0          
C7       C      0.867500000000     0.862900000000     0.830040000000     0          
H5       H      0.898700000000     0.844100000000     0.824100000000     0          
C8       C      0.775800000000     0.921400000000     0.847210000000     0          
H6       H      0.746100000000     0.941600000000     0.852900000000     0          
C9       C      0.663300000000     0.870000000000     0.683800000000     0          
C10      C      0.696100000000     0.976750000000     0.733190000000     0          
C11      C      0.621600000000     0.810900000000     0.626470000000     0          
C12      C      0.730500000000     0.963100000000     0.766480000000     0          
C13      C      0.668500000000     0.877400000000     0.642100000000     0          
H7       H      0.686200000000     0.902900000000     0.633300000000     0          
C14      C      0.673000000000     0.946200000000     0.706390000000     0          
H8       H      0.649700000000     0.954800000000     0.684400000000     0          
C15      C      0.615400000000     0.802500000000     0.667900000000     0          
H9       H      0.597000000000     0.777200000000     0.676600000000     0          
C16      C      0.719000000000     0.890900000000     0.746700000000     0          
H10      H      0.725400000000     0.861700000000     0.751400000000     0          
C17      C      0.685300000000     0.902800000000     0.712900000000     0          
C18      C      0.743500000000     0.920300000000     0.773700000000     0          
C19      C      0.648500000000     0.848900000000     0.614200000000     0          
H11      H      0.652900000000     0.854900000000     0.586800000000     0          
O10      O      0.561100000000     0.751070000000     0.608120000000     0          
O11      O      0.610200000000     0.788140000000     0.559340000000     0          
C20      C      0.596000000000     0.781000000000     0.595890000000     0          
Zr1      Zr     0.000000000000     0.793440000000     0.925390000000     0          
O4       O      0.000000000000     0.849500000000     0.963600000000     0          
O8       O      0.000000000000     0.738100000000     0.963100000000     0          
Zr2      Zr     0.079370000000     0.850230000000     0.000000000000     0          
Zr3      Zr     0.078150000000     0.736660000000     0.000000000000     0          
N1       N      0.751300000000     0.000000000000     0.787300000000     0          
H1       H      0.743600000000     0.000000000000     0.812800000000     0          
O1       O      0.060580000000     0.164540000000     0.891720000000     0          
O2       O      0.111600000000     0.126280000000     0.938310000000     0          
O5       O      0.920700000000     0.206320000000     0.963490000000     0          
C1       C      0.141000000000     0.122200000000     0.869960000000     0          
C2       C      0.187400000000     0.093400000000     0.877600000000     0          
H2       H      0.193800000000     0.083900000000     0.904000000000     0          
C3       C      0.101300000000     0.138800000000     0.902790000000     0          
C4       C      0.216900000000     0.094100000000     0.807290000000     0          
C5       C      0.171300000000     0.123200000000     0.799520000000     0          
H3       H      0.166300000000     0.133700000000     0.773400000000     0          
C6       C      0.363200000000     0.167800000000     0.696100000000     0          
H4       H      0.366800000000     0.173700000000     0.723600000000     0          
C7       C      0.132500000000     0.137100000000     0.830040000000     0          
H5       H      0.101300000000     0.155900000000     0.824100000000     0          
C8       C      0.224200000000     0.078600000000     0.847210000000     0          
H6       H      0.253900000000     0.058400000000     0.852900000000     0          
C9       C      0.336700000000     0.130000000000     0.683800000000     0          
C10      C      0.303900000000     0.023250000000     0.733190000000     0          
C11      C      0.378400000000     0.189100000000     0.626470000000     0          
C12      C      0.269500000000     0.036900000000     0.766480000000     0          
C13      C      0.331500000000     0.122600000000     0.642100000000     0          
H7       H      0.313800000000     0.097100000000     0.633300000000     0          
C14      C      0.327000000000     0.053800000000     0.706390000000     0          
H8       H      0.350300000000     0.045200000000     0.684400000000     0          
C15      C      0.384600000000     0.197500000000     0.667900000000     0          
H9       H      0.403000000000     0.222800000000     0.676600000000     0          
C16      C      0.281000000000     0.109100000000     0.746700000000     0          
H10      H      0.274600000000     0.138300000000     0.751400000000     0          
C17      C      0.314700000000     0.097200000000     0.712900000000     0          
C18      C      0.256500000000     0.079700000000     0.773700000000     0          
C19      C      0.351500000000     0.151100000000     0.614200000000     0          
H11      H      0.347100000000     0.145100000000     0.586800000000     0          
O10      O      0.438900000000     0.248930000000     0.608120000000     0          
O11      O      0.389800000000     0.211860000000     0.559340000000     0          
C20      C      0.404000000000     0.219000000000     0.595890000000     0          
Zr1      Zr     0.000000000000     0.206560000000     0.925390000000     0          
O4       O      0.000000000000     0.150500000000     0.963600000000     0          
O8       O      0.000000000000     0.261900000000     0.963100000000     0          
Zr2      Zr     0.920630000000     0.149770000000     0.000000000000     0          
Zr3      Zr     0.921850000000     0.263340000000     0.000000000000     0          
N1       N      0.248700000000     0.000000000000     0.787300000000     0          
H1       H      0.256400000000     0.000000000000     0.812800000000     0          
O1       O      0.939420000000     0.164540000000     0.108280000000     0          
O2       O      0.888400000000     0.126280000000     0.061690000000     0          
O5       O      0.079300000000     0.206320000000     0.036510000000     0          
C1       C      0.859000000000     0.122200000000     0.130040000000     0          
C2       C      0.812600000000     0.093400000000     0.122400000000     0          
H2       H      0.806200000000     0.083900000000     0.096000000000     0          
C3       C      0.898700000000     0.138800000000     0.097210000000     0          
C4       C      0.783100000000     0.094100000000     0.192710000000     0          
C5       C      0.828700000000     0.123200000000     0.200480000000     0          
H3       H      0.833700000000     0.133700000000     0.226600000000     0          
C6       C      0.636800000000     0.167800000000     0.303900000000     0          
H4       H      0.633200000000     0.173700000000     0.276400000000     0          
C7       C      0.867500000000     0.137100000000     0.169960000000     0          
H5       H      0.898700000000     0.155900000000     0.175900000000     0          
C8       C      0.775800000000     0.078600000000     0.152790000000     0          
H6       H      0.746100000000     0.058400000000     0.147100000000     0          
C9       C      0.663300000000     0.130000000000     0.316200000000     0          
C10      C      0.696100000000     0.023250000000     0.266810000000     0          
C11      C      0.621600000000     0.189100000000     0.373530000000     0          
C12      C      0.730500000000     0.036900000000     0.233520000000     0          
C13      C      0.668500000000     0.122600000000     0.357900000000     0          
H7       H      0.686200000000     0.097100000000     0.366700000000     0          
C14      C      0.673000000000     0.053800000000     0.293610000000     0          
H8       H      0.649700000000     0.045200000000     0.315600000000     0          
C15      C      0.615400000000     0.197500000000     0.332100000000     0          
H9       H      0.597000000000     0.222800000000     0.323400000000     0          
C16      C      0.719000000000     0.109100000000     0.253300000000     0          
H10      H      0.725400000000     0.138300000000     0.248600000000     0          
C17      C      0.685300000000     0.097200000000     0.287100000000     0          
C18      C      0.743500000000     0.079700000000     0.226300000000     0          
C19      C      0.648500000000     0.151100000000     0.385800000000     0          
H11      H      0.652900000000     0.145100000000     0.413200000000     0          
O10      O      0.561100000000     0.248930000000     0.391880000000     0          
O11      O      0.610200000000     0.211860000000     0.440660000000     0          
C20      C      0.596000000000     0.219000000000     0.404110000000     0          
Zr1      Zr     0.000000000000     0.206560000000     0.074610000000     0          
O4       O      0.000000000000     0.150500000000     0.036400000000     0          
O8       O      0.000000000000     0.261900000000     0.036900000000     0          
Zr2      Zr     0.079370000000     0.149770000000     0.000000000000     0          
Zr3      Zr     0.078150000000     0.263340000000     0.000000000000     0          
N1       N      0.751300000000     0.000000000000     0.212700000000     0          
H1       H      0.743600000000     0.000000000000     0.187200000000     0          
O1       O      0.060580000000     0.835460000000     0.108280000000     0          
O2       O      0.111600000000     0.873720000000     0.061690000000     0          
O5       O      0.920700000000     0.793680000000     0.036510000000     0          
C1       C      0.141000000000     0.877800000000     0.130040000000     0          
C2       C      0.187400000000     0.906600000000     0.122400000000     0          
H2       H      0.193800000000     0.916100000000     0.096000000000     0          
C3       C      0.101300000000     0.861200000000     0.097210000000     0          
C4       C      0.216900000000     0.905900000000     0.192710000000     0          
C5       C      0.171300000000     0.876800000000     0.200480000000     0          
H3       H      0.166300000000     0.866300000000     0.226600000000     0          
C6       C      0.363200000000     0.832200000000     0.303900000000     0          
H4       H      0.366800000000     0.826300000000     0.276400000000     0          
C7       C      0.132500000000     0.862900000000     0.169960000000     0          
H5       H      0.101300000000     0.844100000000     0.175900000000     0          
C8       C      0.224200000000     0.921400000000     0.152790000000     0          
H6       H      0.253900000000     0.941600000000     0.147100000000     0          
C9       C      0.336700000000     0.870000000000     0.316200000000     0          
C10      C      0.303900000000     0.976750000000     0.266810000000     0          
C11      C      0.378400000000     0.810900000000     0.373530000000     0          
C12      C      0.269500000000     0.963100000000     0.233520000000     0          
C13      C      0.331500000000     0.877400000000     0.357900000000     0          
H7       H      0.313800000000     0.902900000000     0.366700000000     0          
C14      C      0.327000000000     0.946200000000     0.293610000000     0          
H8       H      0.350300000000     0.954800000000     0.315600000000     0          
C15      C      0.384600000000     0.802500000000     0.332100000000     0          
H9       H      0.403000000000     0.777200000000     0.323400000000     0          
C16      C      0.281000000000     0.890900000000     0.253300000000     0          
H10      H      0.274600000000     0.861700000000     0.248600000000     0          
C17      C      0.314700000000     0.902800000000     0.287100000000     0          
C18      C      0.256500000000     0.920300000000     0.226300000000     0          
C19      C      0.351500000000     0.848900000000     0.385800000000     0          
H11      H      0.347100000000     0.854900000000     0.413200000000     0          
O10      O      0.438900000000     0.751070000000     0.391880000000     0          
O11      O      0.389800000000     0.788140000000     0.440660000000     0          
C20      C      0.404000000000     0.781000000000     0.404110000000     0          
Zr1      Zr     0.000000000000     0.793440000000     0.074610000000     0          
O4       O      0.000000000000     0.849500000000     0.036400000000     0          
O8       O      0.000000000000     0.738100000000     0.036900000000     0          
Zr2      Zr     0.920630000000     0.850230000000     0.000000000000     0          
Zr3      Zr     0.921850000000     0.736660000000     0.000000000000     0          
N1       N      0.248700000000     0.000000000000     0.212700000000     0          
H1       H      0.256400000000     0.000000000000     0.187200000000     0          
O1       O      0.060580000000     0.164540000000     0.108280000000     0          
O2       O      0.111600000000     0.126280000000     0.061690000000     0          
O5       O      0.920700000000     0.206320000000     0.036510000000     0          
C1       C      0.141000000000     0.122200000000     0.130040000000     0          
C2       C      0.187400000000     0.093400000000     0.122400000000     0          
H2       H      0.193800000000     0.083900000000     0.096000000000     0          
C3       C      0.101300000000     0.138800000000     0.097210000000     0          
C4       C      0.216900000000     0.094100000000     0.192710000000     0          
C5       C      0.171300000000     0.123200000000     0.200480000000     0          
H3       H      0.166300000000     0.133700000000     0.226600000000     0          
C6       C      0.363200000000     0.167800000000     0.303900000000     0          
H4       H      0.366800000000     0.173700000000     0.276400000000     0          
C7       C      0.132500000000     0.137100000000     0.169960000000     0          
H5       H      0.101300000000     0.155900000000     0.175900000000     0          
C8       C      0.224200000000     0.078600000000     0.152790000000     0          
H6       H      0.253900000000     0.058400000000     0.147100000000     0          
C9       C      0.336700000000     0.130000000000     0.316200000000     0          
C10      C      0.303900000000     0.023250000000     0.266810000000     0          
C11      C      0.378400000000     0.189100000000     0.373530000000     0          
C12      C      0.269500000000     0.036900000000     0.233520000000     0          
C13      C      0.331500000000     0.122600000000     0.357900000000     0          
H7       H      0.313800000000     0.097100000000     0.366700000000     0          
C14      C      0.327000000000     0.053800000000     0.293610000000     0          
H8       H      0.350300000000     0.045200000000     0.315600000000     0          
C15      C      0.384600000000     0.197500000000     0.332100000000     0          
H9       H      0.403000000000     0.222800000000     0.323400000000     0          
C16      C      0.281000000000     0.109100000000     0.253300000000     0          
H10      H      0.274600000000     0.138300000000     0.248600000000     0          
C17      C      0.314700000000     0.097200000000     0.287100000000     0          
C18      C      0.256500000000     0.079700000000     0.226300000000     0          
C19      C      0.351500000000     0.151100000000     0.385800000000     0          
H11      H      0.347100000000     0.145100000000     0.413200000000     0          
O10      O      0.438900000000     0.248930000000     0.391880000000     0          
O11      O      0.389800000000     0.211860000000     0.440660000000     0          
C20      C      0.404000000000     0.219000000000     0.404110000000     0          
O1       O      0.939420000000     0.835460000000     0.108280000000     0          
O2       O      0.888400000000     0.873720000000     0.061690000000     0          
O5       O      0.079300000000     0.793680000000     0.036510000000     0          
C1       C      0.859000000000     0.877800000000     0.130040000000     0          
C2       C      0.812600000000     0.906600000000     0.122400000000     0          
H2       H      0.806200000000     0.916100000000     0.096000000000     0          
C3       C      0.898700000000     0.861200000000     0.097210000000     0          
C4       C      0.783100000000     0.905900000000     0.192710000000     0          
C5       C      0.828700000000     0.876800000000     0.200480000000     0          
H3       H      0.833700000000     0.866300000000     0.226600000000     0          
C6       C      0.636800000000     0.832200000000     0.303900000000     0          
H4       H      0.633200000000     0.826300000000     0.276400000000     0          
C7       C      0.867500000000     0.862900000000     0.169960000000     0          
H5       H      0.898700000000     0.844100000000     0.175900000000     0          
C8       C      0.775800000000     0.921400000000     0.152790000000     0          
H6       H      0.746100000000     0.941600000000     0.147100000000     0          
C9       C      0.663300000000     0.870000000000     0.316200000000     0          
C10      C      0.696100000000     0.976750000000     0.266810000000     0          
C11      C      0.621600000000     0.810900000000     0.373530000000     0          
C12      C      0.730500000000     0.963100000000     0.233520000000     0          
C13      C      0.668500000000     0.877400000000     0.357900000000     0          
H7       H      0.686200000000     0.902900000000     0.366700000000     0          
C14      C      0.673000000000     0.946200000000     0.293610000000     0          
H8       H      0.649700000000     0.954800000000     0.315600000000     0          
C15      C      0.615400000000     0.802500000000     0.332100000000     0          
H9       H      0.597000000000     0.777200000000     0.323400000000     0          
C16      C      0.719000000000     0.890900000000     0.253300000000     0          
H10      H      0.725400000000     0.861700000000     0.248600000000     0          
C17      C      0.685300000000     0.902800000000     0.287100000000     0          
C18      C      0.743500000000     0.920300000000     0.226300000000     0          
C19      C      0.648500000000     0.848900000000     0.385800000000     0          
H11      H      0.652900000000     0.854900000000     0.413200000000     0          
O10      O      0.561100000000     0.751070000000     0.391880000000     0          
O11      O      0.610200000000     0.788140000000     0.440660000000     0          
C20      C      0.596000000000     0.781000000000     0.404110000000     0          
O1       O      0.060580000000     0.835460000000     0.891720000000     0          
O2       O      0.111600000000     0.873720000000     0.938310000000     0          
O5       O      0.920700000000     0.793680000000     0.963490000000     0          
C1       C      0.141000000000     0.877800000000     0.869960000000     0          
C2       C      0.187400000000     0.906600000000     0.877600000000     0          
H2       H      0.193800000000     0.916100000000     0.904000000000     0          
C3       C      0.101300000000     0.861200000000     0.902790000000     0          
C4       C      0.216900000000     0.905900000000     0.807290000000     0          
C5       C      0.171300000000     0.876800000000     0.799520000000     0          
H3       H      0.166300000000     0.866300000000     0.773400000000     0          
C6       C      0.363200000000     0.832200000000     0.696100000000     0          
H4       H      0.366800000000     0.826300000000     0.723600000000     0          
C7       C      0.132500000000     0.862900000000     0.830040000000     0          
H5       H      0.101300000000     0.844100000000     0.824100000000     0          
C8       C      0.224200000000     0.921400000000     0.847210000000     0          
H6       H      0.253900000000     0.941600000000     0.852900000000     0          
C9       C      0.336700000000     0.870000000000     0.683800000000     0          
C10      C      0.303900000000     0.976750000000     0.733190000000     0          
C11      C      0.378400000000     0.810900000000     0.626470000000     0          
C12      C      0.269500000000     0.963100000000     0.766480000000     0          
C13      C      0.331500000000     0.877400000000     0.642100000000     0          
H7       H      0.313800000000     0.902900000000     0.633300000000     0          
C14      C      0.327000000000     0.946200000000     0.706390000000     0          
H8       H      0.350300000000     0.954800000000     0.684400000000     0          
C15      C      0.384600000000     0.802500000000     0.667900000000     0          
H9       H      0.403000000000     0.777200000000     0.676600000000     0          
C16      C      0.281000000000     0.890900000000     0.746700000000     0          
H10      H      0.274600000000     0.861700000000     0.751400000000     0          
C17      C      0.314700000000     0.902800000000     0.712900000000     0          
C18      C      0.256500000000     0.920300000000     0.773700000000     0          
C19      C      0.351500000000     0.848900000000     0.614200000000     0          
H11      H      0.347100000000     0.854900000000     0.586800000000     0          
O10      O      0.438900000000     0.751070000000     0.608120000000     0          
O11      O      0.389800000000     0.788140000000     0.559340000000     0          
C20      C      0.404000000000     0.781000000000     0.595890000000     0          
O1       O      0.939420000000     0.164540000000     0.891720000000     0          
O2       O      0.888400000000     0.126280000000     0.938310000000     0          
O5       O      0.079300000000     0.206320000000     0.963490000000     0          
C1       C      0.859000000000     0.122200000000     0.869960000000     0          
C2       C      0.812600000000     0.093400000000     0.877600000000     0          
H2       H      0.806200000000     0.083900000000     0.904000000000     0          
C3       C      0.898700000000     0.138800000000     0.902790000000     0          
C4       C      0.783100000000     0.094100000000     0.807290000000     0          
C5       C      0.828700000000     0.123200000000     0.799520000000     0          
H3       H      0.833700000000     0.133700000000     0.773400000000     0          
C6       C      0.636800000000     0.167800000000     0.696100000000     0          
H4       H      0.633200000000     0.173700000000     0.723600000000     0          
C7       C      0.867500000000     0.137100000000     0.830040000000     0          
H5       H      0.898700000000     0.155900000000     0.824100000000     0          
C8       C      0.775800000000     0.078600000000     0.847210000000     0          
H6       H      0.746100000000     0.058400000000     0.852900000000     0          
C9       C      0.663300000000     0.130000000000     0.683800000000     0          
C10      C      0.696100000000     0.023250000000     0.733190000000     0          
C11      C      0.621600000000     0.189100000000     0.626470000000     0          
C12      C      0.730500000000     0.036900000000     0.766480000000     0          
C13      C      0.668500000000     0.122600000000     0.642100000000     0          
H7       H      0.686200000000     0.097100000000     0.633300000000     0          
C14      C      0.673000000000     0.053800000000     0.706390000000     0          
H8       H      0.649700000000     0.045200000000     0.684400000000     0          
C15      C      0.615400000000     0.197500000000     0.667900000000     0          
H9       H      0.597000000000     0.222800000000     0.676600000000     0          
C16      C      0.719000000000     0.109100000000     0.746700000000     0          
H10      H      0.725400000000     0.138300000000     0.751400000000     0          
C17      C      0.685300000000     0.097200000000     0.712900000000     0          
C18      C      0.743500000000     0.079700000000     0.773700000000     0          
C19      C      0.648500000000     0.151100000000     0.614200000000     0          
H11      H      0.652900000000     0.145100000000     0.586800000000     0          
O10      O      0.561100000000     0.248930000000     0.608120000000     0          
O11      O      0.610200000000     0.211860000000     0.559340000000     0          
C20      C      0.596000000000     0.219000000000     0.595890000000     0          


