data_GIPFAP

_audit_creation_method RASPA-1.0
_audit_creation_date 2020-11-23
_audit_author_name 'Rocio Bueno-Perez'

_cell_length_a    20.194
_cell_length_b    31.65
_cell_length_c    33.78
_cell_angle_alpha 90
_cell_angle_beta  90
_cell_angle_gamma 90
_cell_volume      21590.2

_symmetry_cell_setting          orthorhombic
_symmetry_space_group_name_Hall 'P 1'
_symmetry_space_group_name_H-M  'P 1'
_symmetry_Int_Tables_number     1

_symmetry_equiv_pos_as_xyz 'x,y,z'

loop_
_atom_site_label
_atom_site_type_symbol
_atom_site_fract_x
_atom_site_fract_y
_atom_site_fract_z
_atom_site_charge
O1       O      0.412450000000     0.284500000000     0.465120000000     0          
O4       O      0.380270000000     0.205320000000     0.441540000000     0          
O5       O      0.432980000000     0.241630000000     0.394770000000     0          
O6       O      0.064440000000     0.174500000000     0.104710000000     0          
O7       O      0.123500000000     0.137980000000     0.060720000000     0          
C1       C      0.396000000000     0.212520000000     0.405970000000     0          
C2       C      0.371730000000     0.183270000000     0.374660000000     0          
C3       C      0.340820000000     0.146590000000     0.387020000000     0          
H2       H      0.334700000000     0.141100000000     0.414400000000     0          
C4       C      0.318760000000     0.117710000000     0.358540000000     0          
H3       H      0.297500000000     0.092400000000     0.366800000000     0          
C5       C      0.327500000000     0.125380000000     0.318520000000     0          
C6       C      0.353300000000     0.162250000000     0.307650000000     0          
H4       H      0.356100000000     0.169100000000     0.280300000000     0          
C7       C      0.376500000000     0.191010000000     0.335580000000     0          
H5       H      0.396100000000     0.216700000000     0.326900000000     0          
C8       C      0.303920000000     0.094800000000     0.290600000000     0          
C9       C      0.315720000000     0.051630000000     0.297020000000     0          
H6       H      0.338700000000     0.042300000000     0.320000000000     0          
C10      C      0.292900000000     0.022710000000     0.268960000000     0          
C11      C      0.260050000000     0.034360000000     0.235500000000     0          
C12      C      0.247890000000     0.077900000000     0.227000000000     0          
C13      C      0.272540000000     0.106890000000     0.255570000000     0          
H7       H      0.267300000000     0.136200000000     0.250500000000     0          
C14      C      0.213530000000     0.093570000000     0.192940000000     0          
C15      C      0.224940000000     0.079910000000     0.154900000000     0          
H8       H      0.256400000000     0.058300000000     0.149800000000     0          
C16      C      0.189360000000     0.098480000000     0.123800000000     0          
H9       H      0.197900000000     0.088500000000     0.097800000000     0          
C17      C      0.145130000000     0.128670000000     0.127800000000     0          
C18      C      0.129760000000     0.141900000000     0.167570000000     0          
H10      H      0.096200000000     0.162200000000     0.172700000000     0          
C19      C      0.166720000000     0.123400000000     0.198500000000     0          
H11      H      0.158100000000     0.132500000000     0.224800000000     0          
C20      C      0.108040000000     0.148960000000     0.096260000000     0          
Zr1      Zr     0.500000000000     0.284000000000     0.427800000000     0          
O2       O      0.500000000000     0.229340000000     0.464800000000     0          
O3       O      0.500000000000     0.340350000000     0.464560000000     0          
Zr2      Zr     0.412590000000     0.339720000000     0.500000000000     0          
Zr3      Zr     0.413880000000     0.228750000000     0.500000000000     0          
N1       N      0.239500000000     0.000000000000     0.214340000000     0          
H1       H      0.217600000000     0.000000000000     0.191800000000     0          
O1       O      0.587550000000     0.715500000000     0.465120000000     0          
O4       O      0.619730000000     0.794680000000     0.441540000000     0          
O5       O      0.567020000000     0.758370000000     0.394770000000     0          
O6       O      0.935560000000     0.825500000000     0.104710000000     0          
O7       O      0.876500000000     0.862020000000     0.060720000000     0          
C1       C      0.604000000000     0.787480000000     0.405970000000     0          
C2       C      0.628270000000     0.816730000000     0.374660000000     0          
C3       C      0.659180000000     0.853410000000     0.387020000000     0          
H2       H      0.665300000000     0.858900000000     0.414400000000     0          
C4       C      0.681240000000     0.882290000000     0.358540000000     0          
H3       H      0.702500000000     0.907600000000     0.366800000000     0          
C5       C      0.672500000000     0.874620000000     0.318520000000     0          
C6       C      0.646700000000     0.837750000000     0.307650000000     0          
H4       H      0.643900000000     0.830900000000     0.280300000000     0          
C7       C      0.623500000000     0.808990000000     0.335580000000     0          
H5       H      0.603900000000     0.783300000000     0.326900000000     0          
C8       C      0.696080000000     0.905200000000     0.290600000000     0          
C9       C      0.684280000000     0.948370000000     0.297020000000     0          
H6       H      0.661300000000     0.957700000000     0.320000000000     0          
C10      C      0.707100000000     0.977290000000     0.268960000000     0          
C11      C      0.739950000000     0.965640000000     0.235500000000     0          
C12      C      0.752110000000     0.922100000000     0.227000000000     0          
C13      C      0.727460000000     0.893110000000     0.255570000000     0          
H7       H      0.732700000000     0.863800000000     0.250500000000     0          
C14      C      0.786470000000     0.906430000000     0.192940000000     0          
C15      C      0.775060000000     0.920090000000     0.154900000000     0          
H8       H      0.743600000000     0.941700000000     0.149800000000     0          
C16      C      0.810640000000     0.901520000000     0.123800000000     0          
H9       H      0.802100000000     0.911500000000     0.097800000000     0          
C17      C      0.854870000000     0.871330000000     0.127800000000     0          
C18      C      0.870240000000     0.858100000000     0.167570000000     0          
H10      H      0.903800000000     0.837800000000     0.172700000000     0          
C19      C      0.833280000000     0.876600000000     0.198500000000     0          
H11      H      0.841900000000     0.867500000000     0.224800000000     0          
C20      C      0.891960000000     0.851040000000     0.096260000000     0          
Zr1      Zr     0.500000000000     0.716000000000     0.427800000000     0          
O2       O      0.500000000000     0.770660000000     0.464800000000     0          
O3       O      0.500000000000     0.659650000000     0.464560000000     0          
Zr2      Zr     0.587410000000     0.660280000000     0.500000000000     0          
Zr3      Zr     0.586120000000     0.771250000000     0.500000000000     0          
N1       N      0.760500000000     0.000000000000     0.214340000000     0          
H1       H      0.782400000000     0.000000000000     0.191800000000     0          
O1       O      0.412450000000     0.715500000000     0.534880000000     0          
O4       O      0.380270000000     0.794680000000     0.558460000000     0          
O5       O      0.432980000000     0.758370000000     0.605230000000     0          
O6       O      0.064440000000     0.825500000000     0.895290000000     0          
O7       O      0.123500000000     0.862020000000     0.939280000000     0          
C1       C      0.396000000000     0.787480000000     0.594030000000     0          
C2       C      0.371730000000     0.816730000000     0.625340000000     0          
C3       C      0.340820000000     0.853410000000     0.612980000000     0          
H2       H      0.334700000000     0.858900000000     0.585600000000     0          
C4       C      0.318760000000     0.882290000000     0.641460000000     0          
H3       H      0.297500000000     0.907600000000     0.633200000000     0          
C5       C      0.327500000000     0.874620000000     0.681480000000     0          
C6       C      0.353300000000     0.837750000000     0.692350000000     0          
H4       H      0.356100000000     0.830900000000     0.719700000000     0          
C7       C      0.376500000000     0.808990000000     0.664420000000     0          
H5       H      0.396100000000     0.783300000000     0.673100000000     0          
C8       C      0.303920000000     0.905200000000     0.709400000000     0          
C9       C      0.315720000000     0.948370000000     0.702980000000     0          
H6       H      0.338700000000     0.957700000000     0.680000000000     0          
C10      C      0.292900000000     0.977290000000     0.731040000000     0          
C11      C      0.260050000000     0.965640000000     0.764500000000     0          
C12      C      0.247890000000     0.922100000000     0.773000000000     0          
C13      C      0.272540000000     0.893110000000     0.744430000000     0          
H7       H      0.267300000000     0.863800000000     0.749500000000     0          
C14      C      0.213530000000     0.906430000000     0.807060000000     0          
C15      C      0.224940000000     0.920090000000     0.845100000000     0          
H8       H      0.256400000000     0.941700000000     0.850200000000     0          
C16      C      0.189360000000     0.901520000000     0.876200000000     0          
H9       H      0.197900000000     0.911500000000     0.902200000000     0          
C17      C      0.145130000000     0.871330000000     0.872200000000     0          
C18      C      0.129760000000     0.858100000000     0.832430000000     0          
H10      H      0.096200000000     0.837800000000     0.827300000000     0          
C19      C      0.166720000000     0.876600000000     0.801500000000     0          
H11      H      0.158100000000     0.867500000000     0.775200000000     0          
C20      C      0.108040000000     0.851040000000     0.903740000000     0          
Zr1      Zr     0.500000000000     0.716000000000     0.572200000000     0          
O2       O      0.500000000000     0.770660000000     0.535200000000     0          
O3       O      0.500000000000     0.659650000000     0.535440000000     0          
Zr2      Zr     0.412590000000     0.660280000000     0.500000000000     0          
Zr3      Zr     0.413880000000     0.771250000000     0.500000000000     0          
N1       N      0.239500000000     0.000000000000     0.785660000000     0          
H1       H      0.217600000000     0.000000000000     0.808200000000     0          
O1       O      0.587550000000     0.284500000000     0.534880000000     0          
O4       O      0.619730000000     0.205320000000     0.558460000000     0          
O5       O      0.567020000000     0.241630000000     0.605230000000     0          
O6       O      0.935560000000     0.174500000000     0.895290000000     0          
O7       O      0.876500000000     0.137980000000     0.939280000000     0          
C1       C      0.604000000000     0.212520000000     0.594030000000     0          
C2       C      0.628270000000     0.183270000000     0.625340000000     0          
C3       C      0.659180000000     0.146590000000     0.612980000000     0          
H2       H      0.665300000000     0.141100000000     0.585600000000     0          
C4       C      0.681240000000     0.117710000000     0.641460000000     0          
H3       H      0.702500000000     0.092400000000     0.633200000000     0          
C5       C      0.672500000000     0.125380000000     0.681480000000     0          
C6       C      0.646700000000     0.162250000000     0.692350000000     0          
H4       H      0.643900000000     0.169100000000     0.719700000000     0          
C7       C      0.623500000000     0.191010000000     0.664420000000     0          
H5       H      0.603900000000     0.216700000000     0.673100000000     0          
C8       C      0.696080000000     0.094800000000     0.709400000000     0          
C9       C      0.684280000000     0.051630000000     0.702980000000     0          
H6       H      0.661300000000     0.042300000000     0.680000000000     0          
C10      C      0.707100000000     0.022710000000     0.731040000000     0          
C11      C      0.739950000000     0.034360000000     0.764500000000     0          
C12      C      0.752110000000     0.077900000000     0.773000000000     0          
C13      C      0.727460000000     0.106890000000     0.744430000000     0          
H7       H      0.732700000000     0.136200000000     0.749500000000     0          
C14      C      0.786470000000     0.093570000000     0.807060000000     0          
C15      C      0.775060000000     0.079910000000     0.845100000000     0          
H8       H      0.743600000000     0.058300000000     0.850200000000     0          
C16      C      0.810640000000     0.098480000000     0.876200000000     0          
H9       H      0.802100000000     0.088500000000     0.902200000000     0          
C17      C      0.854870000000     0.128670000000     0.872200000000     0          
C18      C      0.870240000000     0.141900000000     0.832430000000     0          
H10      H      0.903800000000     0.162200000000     0.827300000000     0          
C19      C      0.833280000000     0.123400000000     0.801500000000     0          
H11      H      0.841900000000     0.132500000000     0.775200000000     0          
C20      C      0.891960000000     0.148960000000     0.903740000000     0          
Zr1      Zr     0.500000000000     0.284000000000     0.572200000000     0          
O2       O      0.500000000000     0.229340000000     0.535200000000     0          
O3       O      0.500000000000     0.340350000000     0.535440000000     0          
Zr2      Zr     0.587410000000     0.339720000000     0.500000000000     0          
Zr3      Zr     0.586120000000     0.228750000000     0.500000000000     0          
N1       N      0.760500000000     0.000000000000     0.785660000000     0          
H1       H      0.782400000000     0.000000000000     0.808200000000     0          
O1       O      0.587550000000     0.715500000000     0.534880000000     0          
O4       O      0.619730000000     0.794680000000     0.558460000000     0          
O5       O      0.567020000000     0.758370000000     0.605230000000     0          
O6       O      0.935560000000     0.825500000000     0.895290000000     0          
O7       O      0.876500000000     0.862020000000     0.939280000000     0          
C1       C      0.604000000000     0.787480000000     0.594030000000     0          
C2       C      0.628270000000     0.816730000000     0.625340000000     0          
C3       C      0.659180000000     0.853410000000     0.612980000000     0          
H2       H      0.665300000000     0.858900000000     0.585600000000     0          
C4       C      0.681240000000     0.882290000000     0.641460000000     0          
H3       H      0.702500000000     0.907600000000     0.633200000000     0          
C5       C      0.672500000000     0.874620000000     0.681480000000     0          
C6       C      0.646700000000     0.837750000000     0.692350000000     0          
H4       H      0.643900000000     0.830900000000     0.719700000000     0          
C7       C      0.623500000000     0.808990000000     0.664420000000     0          
H5       H      0.603900000000     0.783300000000     0.673100000000     0          
C8       C      0.696080000000     0.905200000000     0.709400000000     0          
C9       C      0.684280000000     0.948370000000     0.702980000000     0          
H6       H      0.661300000000     0.957700000000     0.680000000000     0          
C10      C      0.707100000000     0.977290000000     0.731040000000     0          
C11      C      0.739950000000     0.965640000000     0.764500000000     0          
C12      C      0.752110000000     0.922100000000     0.773000000000     0          
C13      C      0.727460000000     0.893110000000     0.744430000000     0          
H7       H      0.732700000000     0.863800000000     0.749500000000     0          
C14      C      0.786470000000     0.906430000000     0.807060000000     0          
C15      C      0.775060000000     0.920090000000     0.845100000000     0          
H8       H      0.743600000000     0.941700000000     0.850200000000     0          
C16      C      0.810640000000     0.901520000000     0.876200000000     0          
H9       H      0.802100000000     0.911500000000     0.902200000000     0          
C17      C      0.854870000000     0.871330000000     0.872200000000     0          
C18      C      0.870240000000     0.858100000000     0.832430000000     0          
H10      H      0.903800000000     0.837800000000     0.827300000000     0          
C19      C      0.833280000000     0.876600000000     0.801500000000     0          
H11      H      0.841900000000     0.867500000000     0.775200000000     0          
C20      C      0.891960000000     0.851040000000     0.903740000000     0          
O1       O      0.412450000000     0.284500000000     0.534880000000     0          
O4       O      0.380270000000     0.205320000000     0.558460000000     0          
O5       O      0.432980000000     0.241630000000     0.605230000000     0          
O6       O      0.064440000000     0.174500000000     0.895290000000     0          
O7       O      0.123500000000     0.137980000000     0.939280000000     0          
C1       C      0.396000000000     0.212520000000     0.594030000000     0          
C2       C      0.371730000000     0.183270000000     0.625340000000     0          
C3       C      0.340820000000     0.146590000000     0.612980000000     0          
H2       H      0.334700000000     0.141100000000     0.585600000000     0          
C4       C      0.318760000000     0.117710000000     0.641460000000     0          
H3       H      0.297500000000     0.092400000000     0.633200000000     0          
C5       C      0.327500000000     0.125380000000     0.681480000000     0          
C6       C      0.353300000000     0.162250000000     0.692350000000     0          
H4       H      0.356100000000     0.169100000000     0.719700000000     0          
C7       C      0.376500000000     0.191010000000     0.664420000000     0          
H5       H      0.396100000000     0.216700000000     0.673100000000     0          
C8       C      0.303920000000     0.094800000000     0.709400000000     0          
C9       C      0.315720000000     0.051630000000     0.702980000000     0          
H6       H      0.338700000000     0.042300000000     0.680000000000     0          
C10      C      0.292900000000     0.022710000000     0.731040000000     0          
C11      C      0.260050000000     0.034360000000     0.764500000000     0          
C12      C      0.247890000000     0.077900000000     0.773000000000     0          
C13      C      0.272540000000     0.106890000000     0.744430000000     0          
H7       H      0.267300000000     0.136200000000     0.749500000000     0          
C14      C      0.213530000000     0.093570000000     0.807060000000     0          
C15      C      0.224940000000     0.079910000000     0.845100000000     0          
H8       H      0.256400000000     0.058300000000     0.850200000000     0          
C16      C      0.189360000000     0.098480000000     0.876200000000     0          
H9       H      0.197900000000     0.088500000000     0.902200000000     0          
C17      C      0.145130000000     0.128670000000     0.872200000000     0          
C18      C      0.129760000000     0.141900000000     0.832430000000     0          
H10      H      0.096200000000     0.162200000000     0.827300000000     0          
C19      C      0.166720000000     0.123400000000     0.801500000000     0          
H11      H      0.158100000000     0.132500000000     0.775200000000     0          
C20      C      0.108040000000     0.148960000000     0.903740000000     0          
O1       O      0.587550000000     0.284500000000     0.465120000000     0          
O4       O      0.619730000000     0.205320000000     0.441540000000     0          
O5       O      0.567020000000     0.241630000000     0.394770000000     0          
O6       O      0.935560000000     0.174500000000     0.104710000000     0          
O7       O      0.876500000000     0.137980000000     0.060720000000     0          
C1       C      0.604000000000     0.212520000000     0.405970000000     0          
C2       C      0.628270000000     0.183270000000     0.374660000000     0          
C3       C      0.659180000000     0.146590000000     0.387020000000     0          
H2       H      0.665300000000     0.141100000000     0.414400000000     0          
C4       C      0.681240000000     0.117710000000     0.358540000000     0          
H3       H      0.702500000000     0.092400000000     0.366800000000     0          
C5       C      0.672500000000     0.125380000000     0.318520000000     0          
C6       C      0.646700000000     0.162250000000     0.307650000000     0          
H4       H      0.643900000000     0.169100000000     0.280300000000     0          
C7       C      0.623500000000     0.191010000000     0.335580000000     0          
H5       H      0.603900000000     0.216700000000     0.326900000000     0          
C8       C      0.696080000000     0.094800000000     0.290600000000     0          
C9       C      0.684280000000     0.051630000000     0.297020000000     0          
H6       H      0.661300000000     0.042300000000     0.320000000000     0          
C10      C      0.707100000000     0.022710000000     0.268960000000     0          
C11      C      0.739950000000     0.034360000000     0.235500000000     0          
C12      C      0.752110000000     0.077900000000     0.227000000000     0          
C13      C      0.727460000000     0.106890000000     0.255570000000     0          
H7       H      0.732700000000     0.136200000000     0.250500000000     0          
C14      C      0.786470000000     0.093570000000     0.192940000000     0          
C15      C      0.775060000000     0.079910000000     0.154900000000     0          
H8       H      0.743600000000     0.058300000000     0.149800000000     0          
C16      C      0.810640000000     0.098480000000     0.123800000000     0          
H9       H      0.802100000000     0.088500000000     0.097800000000     0          
C17      C      0.854870000000     0.128670000000     0.127800000000     0          
C18      C      0.870240000000     0.141900000000     0.167570000000     0          
H10      H      0.903800000000     0.162200000000     0.172700000000     0          
C19      C      0.833280000000     0.123400000000     0.198500000000     0          
H11      H      0.841900000000     0.132500000000     0.224800000000     0          
C20      C      0.891960000000     0.148960000000     0.096260000000     0          
O1       O      0.412450000000     0.715500000000     0.465120000000     0          
O4       O      0.380270000000     0.794680000000     0.441540000000     0          
O5       O      0.432980000000     0.758370000000     0.394770000000     0          
O6       O      0.064440000000     0.825500000000     0.104710000000     0          
O7       O      0.123500000000     0.862020000000     0.060720000000     0          
C1       C      0.396000000000     0.787480000000     0.405970000000     0          
C2       C      0.371730000000     0.816730000000     0.374660000000     0          
C3       C      0.340820000000     0.853410000000     0.387020000000     0          
H2       H      0.334700000000     0.858900000000     0.414400000000     0          
C4       C      0.318760000000     0.882290000000     0.358540000000     0          
H3       H      0.297500000000     0.907600000000     0.366800000000     0          
C5       C      0.327500000000     0.874620000000     0.318520000000     0          
C6       C      0.353300000000     0.837750000000     0.307650000000     0          
H4       H      0.356100000000     0.830900000000     0.280300000000     0          
C7       C      0.376500000000     0.808990000000     0.335580000000     0          
H5       H      0.396100000000     0.783300000000     0.326900000000     0          
C8       C      0.303920000000     0.905200000000     0.290600000000     0          
C9       C      0.315720000000     0.948370000000     0.297020000000     0          
H6       H      0.338700000000     0.957700000000     0.320000000000     0          
C10      C      0.292900000000     0.977290000000     0.268960000000     0          
C11      C      0.260050000000     0.965640000000     0.235500000000     0          
C12      C      0.247890000000     0.922100000000     0.227000000000     0          
C13      C      0.272540000000     0.893110000000     0.255570000000     0          
H7       H      0.267300000000     0.863800000000     0.250500000000     0          
C14      C      0.213530000000     0.906430000000     0.192940000000     0          
C15      C      0.224940000000     0.920090000000     0.154900000000     0          
H8       H      0.256400000000     0.941700000000     0.149800000000     0          
C16      C      0.189360000000     0.901520000000     0.123800000000     0          
H9       H      0.197900000000     0.911500000000     0.097800000000     0          
C17      C      0.145130000000     0.871330000000     0.127800000000     0          
C18      C      0.129760000000     0.858100000000     0.167570000000     0          
H10      H      0.096200000000     0.837800000000     0.172700000000     0          
C19      C      0.166720000000     0.876600000000     0.198500000000     0          
H11      H      0.158100000000     0.867500000000     0.224800000000     0          
C20      C      0.108040000000     0.851040000000     0.096260000000     0          
O1       O      0.912450000000     0.784500000000     0.965120000000     0          
O4       O      0.880270000000     0.705320000000     0.941540000000     0          
O5       O      0.932980000000     0.741630000000     0.894770000000     0          
O6       O      0.564440000000     0.674500000000     0.604710000000     0          
O7       O      0.623500000000     0.637980000000     0.560720000000     0          
C1       C      0.896000000000     0.712520000000     0.905970000000     0          
C2       C      0.871730000000     0.683270000000     0.874660000000     0          
C3       C      0.840820000000     0.646590000000     0.887020000000     0          
H2       H      0.834700000000     0.641100000000     0.914400000000     0          
C4       C      0.818760000000     0.617710000000     0.858540000000     0          
H3       H      0.797500000000     0.592400000000     0.866800000000     0          
C5       C      0.827500000000     0.625380000000     0.818520000000     0          
C6       C      0.853300000000     0.662250000000     0.807650000000     0          
H4       H      0.856100000000     0.669100000000     0.780300000000     0          
C7       C      0.876500000000     0.691010000000     0.835580000000     0          
H5       H      0.896100000000     0.716700000000     0.826900000000     0          
C8       C      0.803920000000     0.594800000000     0.790600000000     0          
C9       C      0.815720000000     0.551630000000     0.797020000000     0          
H6       H      0.838700000000     0.542300000000     0.820000000000     0          
C10      C      0.792900000000     0.522710000000     0.768960000000     0          
C11      C      0.760050000000     0.534360000000     0.735500000000     0          
C12      C      0.747890000000     0.577900000000     0.727000000000     0          
C13      C      0.772540000000     0.606890000000     0.755570000000     0          
H7       H      0.767300000000     0.636200000000     0.750500000000     0          
C14      C      0.713530000000     0.593570000000     0.692940000000     0          
C15      C      0.724940000000     0.579910000000     0.654900000000     0          
H8       H      0.756400000000     0.558300000000     0.649800000000     0          
C16      C      0.689360000000     0.598480000000     0.623800000000     0          
H9       H      0.697900000000     0.588500000000     0.597800000000     0          
C17      C      0.645130000000     0.628670000000     0.627800000000     0          
C18      C      0.629760000000     0.641900000000     0.667570000000     0          
H10      H      0.596200000000     0.662200000000     0.672700000000     0          
C19      C      0.666720000000     0.623400000000     0.698500000000     0          
H11      H      0.658100000000     0.632500000000     0.724800000000     0          
C20      C      0.608040000000     0.648960000000     0.596260000000     0          
Zr1      Zr     0.000000000000     0.784000000000     0.927800000000     0          
O2       O      0.000000000000     0.729340000000     0.964800000000     0          
O3       O      0.000000000000     0.840350000000     0.964560000000     0          
Zr2      Zr     0.912590000000     0.839720000000     0.000000000000     0          
Zr3      Zr     0.913880000000     0.728750000000     0.000000000000     0          
N1       N      0.739500000000     0.500000000000     0.714340000000     0          
H1       H      0.717600000000     0.500000000000     0.691800000000     0          
O1       O      0.087550000000     0.215500000000     0.965120000000     0          
O4       O      0.119730000000     0.294680000000     0.941540000000     0          
O5       O      0.067020000000     0.258370000000     0.894770000000     0          
O6       O      0.435560000000     0.325500000000     0.604710000000     0          
O7       O      0.376500000000     0.362020000000     0.560720000000     0          
C1       C      0.104000000000     0.287480000000     0.905970000000     0          
C2       C      0.128270000000     0.316730000000     0.874660000000     0          
C3       C      0.159180000000     0.353410000000     0.887020000000     0          
H2       H      0.165300000000     0.358900000000     0.914400000000     0          
C4       C      0.181240000000     0.382290000000     0.858540000000     0          
H3       H      0.202500000000     0.407600000000     0.866800000000     0          
C5       C      0.172500000000     0.374620000000     0.818520000000     0          
C6       C      0.146700000000     0.337750000000     0.807650000000     0          
H4       H      0.143900000000     0.330900000000     0.780300000000     0          
C7       C      0.123500000000     0.308990000000     0.835580000000     0          
H5       H      0.103900000000     0.283300000000     0.826900000000     0          
C8       C      0.196080000000     0.405200000000     0.790600000000     0          
C9       C      0.184280000000     0.448370000000     0.797020000000     0          
H6       H      0.161300000000     0.457700000000     0.820000000000     0          
C10      C      0.207100000000     0.477290000000     0.768960000000     0          
C11      C      0.239950000000     0.465640000000     0.735500000000     0          
C12      C      0.252110000000     0.422100000000     0.727000000000     0          
C13      C      0.227460000000     0.393110000000     0.755570000000     0          
H7       H      0.232700000000     0.363800000000     0.750500000000     0          
C14      C      0.286470000000     0.406430000000     0.692940000000     0          
C15      C      0.275060000000     0.420090000000     0.654900000000     0          
H8       H      0.243600000000     0.441700000000     0.649800000000     0          
C16      C      0.310640000000     0.401520000000     0.623800000000     0          
H9       H      0.302100000000     0.411500000000     0.597800000000     0          
C17      C      0.354870000000     0.371330000000     0.627800000000     0          
C18      C      0.370240000000     0.358100000000     0.667570000000     0          
H10      H      0.403800000000     0.337800000000     0.672700000000     0          
C19      C      0.333280000000     0.376600000000     0.698500000000     0          
H11      H      0.341900000000     0.367500000000     0.724800000000     0          
C20      C      0.391960000000     0.351040000000     0.596260000000     0          
Zr1      Zr     0.000000000000     0.216000000000     0.927800000000     0          
O2       O      0.000000000000     0.270660000000     0.964800000000     0          
O3       O      0.000000000000     0.159650000000     0.964560000000     0          
Zr2      Zr     0.087410000000     0.160280000000     0.000000000000     0          
Zr3      Zr     0.086120000000     0.271250000000     0.000000000000     0          
N1       N      0.260500000000     0.500000000000     0.714340000000     0          
H1       H      0.282400000000     0.500000000000     0.691800000000     0          
O1       O      0.912450000000     0.215500000000     0.034880000000     0          
O4       O      0.880270000000     0.294680000000     0.058460000000     0          
O5       O      0.932980000000     0.258370000000     0.105230000000     0          
O6       O      0.564440000000     0.325500000000     0.395290000000     0          
O7       O      0.623500000000     0.362020000000     0.439280000000     0          
C1       C      0.896000000000     0.287480000000     0.094030000000     0          
C2       C      0.871730000000     0.316730000000     0.125340000000     0          
C3       C      0.840820000000     0.353410000000     0.112980000000     0          
H2       H      0.834700000000     0.358900000000     0.085600000000     0          
C4       C      0.818760000000     0.382290000000     0.141460000000     0          
H3       H      0.797500000000     0.407600000000     0.133200000000     0          
C5       C      0.827500000000     0.374620000000     0.181480000000     0          
C6       C      0.853300000000     0.337750000000     0.192350000000     0          
H4       H      0.856100000000     0.330900000000     0.219700000000     0          
C7       C      0.876500000000     0.308990000000     0.164420000000     0          
H5       H      0.896100000000     0.283300000000     0.173100000000     0          
C8       C      0.803920000000     0.405200000000     0.209400000000     0          
C9       C      0.815720000000     0.448370000000     0.202980000000     0          
H6       H      0.838700000000     0.457700000000     0.180000000000     0          
C10      C      0.792900000000     0.477290000000     0.231040000000     0          
C11      C      0.760050000000     0.465640000000     0.264500000000     0          
C12      C      0.747890000000     0.422100000000     0.273000000000     0          
C13      C      0.772540000000     0.393110000000     0.244430000000     0          
H7       H      0.767300000000     0.363800000000     0.249500000000     0          
C14      C      0.713530000000     0.406430000000     0.307060000000     0          
C15      C      0.724940000000     0.420090000000     0.345100000000     0          
H8       H      0.756400000000     0.441700000000     0.350200000000     0          
C16      C      0.689360000000     0.401520000000     0.376200000000     0          
H9       H      0.697900000000     0.411500000000     0.402200000000     0          
C17      C      0.645130000000     0.371330000000     0.372200000000     0          
C18      C      0.629760000000     0.358100000000     0.332430000000     0          
H10      H      0.596200000000     0.337800000000     0.327300000000     0          
C19      C      0.666720000000     0.376600000000     0.301500000000     0          
H11      H      0.658100000000     0.367500000000     0.275200000000     0          
C20      C      0.608040000000     0.351040000000     0.403740000000     0          
Zr1      Zr     0.000000000000     0.216000000000     0.072200000000     0          
O2       O      0.000000000000     0.270660000000     0.035200000000     0          
O3       O      0.000000000000     0.159650000000     0.035440000000     0          
Zr2      Zr     0.912590000000     0.160280000000     0.000000000000     0          
Zr3      Zr     0.913880000000     0.271250000000     0.000000000000     0          
N1       N      0.739500000000     0.500000000000     0.285660000000     0          
H1       H      0.717600000000     0.500000000000     0.308200000000     0          
O1       O      0.087550000000     0.784500000000     0.034880000000     0          
O4       O      0.119730000000     0.705320000000     0.058460000000     0          
O5       O      0.067020000000     0.741630000000     0.105230000000     0          
O6       O      0.435560000000     0.674500000000     0.395290000000     0          
O7       O      0.376500000000     0.637980000000     0.439280000000     0          
C1       C      0.104000000000     0.712520000000     0.094030000000     0          
C2       C      0.128270000000     0.683270000000     0.125340000000     0          
C3       C      0.159180000000     0.646590000000     0.112980000000     0          
H2       H      0.165300000000     0.641100000000     0.085600000000     0          
C4       C      0.181240000000     0.617710000000     0.141460000000     0          
H3       H      0.202500000000     0.592400000000     0.133200000000     0          
C5       C      0.172500000000     0.625380000000     0.181480000000     0          
C6       C      0.146700000000     0.662250000000     0.192350000000     0          
H4       H      0.143900000000     0.669100000000     0.219700000000     0          
C7       C      0.123500000000     0.691010000000     0.164420000000     0          
H5       H      0.103900000000     0.716700000000     0.173100000000     0          
C8       C      0.196080000000     0.594800000000     0.209400000000     0          
C9       C      0.184280000000     0.551630000000     0.202980000000     0          
H6       H      0.161300000000     0.542300000000     0.180000000000     0          
C10      C      0.207100000000     0.522710000000     0.231040000000     0          
C11      C      0.239950000000     0.534360000000     0.264500000000     0          
C12      C      0.252110000000     0.577900000000     0.273000000000     0          
C13      C      0.227460000000     0.606890000000     0.244430000000     0          
H7       H      0.232700000000     0.636200000000     0.249500000000     0          
C14      C      0.286470000000     0.593570000000     0.307060000000     0          
C15      C      0.275060000000     0.579910000000     0.345100000000     0          
H8       H      0.243600000000     0.558300000000     0.350200000000     0          
C16      C      0.310640000000     0.598480000000     0.376200000000     0          
H9       H      0.302100000000     0.588500000000     0.402200000000     0          
C17      C      0.354870000000     0.628670000000     0.372200000000     0          
C18      C      0.370240000000     0.641900000000     0.332430000000     0          
H10      H      0.403800000000     0.662200000000     0.327300000000     0          
C19      C      0.333280000000     0.623400000000     0.301500000000     0          
H11      H      0.341900000000     0.632500000000     0.275200000000     0          
C20      C      0.391960000000     0.648960000000     0.403740000000     0          
Zr1      Zr     0.000000000000     0.784000000000     0.072200000000     0          
O2       O      0.000000000000     0.729340000000     0.035200000000     0          
O3       O      0.000000000000     0.840350000000     0.035440000000     0          
Zr2      Zr     0.087410000000     0.839720000000     0.000000000000     0          
Zr3      Zr     0.086120000000     0.728750000000     0.000000000000     0          
N1       N      0.260500000000     0.500000000000     0.285660000000     0          
H1       H      0.282400000000     0.500000000000     0.308200000000     0          
O1       O      0.087550000000     0.215500000000     0.034880000000     0          
O4       O      0.119730000000     0.294680000000     0.058460000000     0          
O5       O      0.067020000000     0.258370000000     0.105230000000     0          
O6       O      0.435560000000     0.325500000000     0.395290000000     0          
O7       O      0.376500000000     0.362020000000     0.439280000000     0          
C1       C      0.104000000000     0.287480000000     0.094030000000     0          
C2       C      0.128270000000     0.316730000000     0.125340000000     0          
C3       C      0.159180000000     0.353410000000     0.112980000000     0          
H2       H      0.165300000000     0.358900000000     0.085600000000     0          
C4       C      0.181240000000     0.382290000000     0.141460000000     0          
H3       H      0.202500000000     0.407600000000     0.133200000000     0          
C5       C      0.172500000000     0.374620000000     0.181480000000     0          
C6       C      0.146700000000     0.337750000000     0.192350000000     0          
H4       H      0.143900000000     0.330900000000     0.219700000000     0          
C7       C      0.123500000000     0.308990000000     0.164420000000     0          
H5       H      0.103900000000     0.283300000000     0.173100000000     0          
C8       C      0.196080000000     0.405200000000     0.209400000000     0          
C9       C      0.184280000000     0.448370000000     0.202980000000     0          
H6       H      0.161300000000     0.457700000000     0.180000000000     0          
C10      C      0.207100000000     0.477290000000     0.231040000000     0          
C11      C      0.239950000000     0.465640000000     0.264500000000     0          
C12      C      0.252110000000     0.422100000000     0.273000000000     0          
C13      C      0.227460000000     0.393110000000     0.244430000000     0          
H7       H      0.232700000000     0.363800000000     0.249500000000     0          
C14      C      0.286470000000     0.406430000000     0.307060000000     0          
C15      C      0.275060000000     0.420090000000     0.345100000000     0          
H8       H      0.243600000000     0.441700000000     0.350200000000     0          
C16      C      0.310640000000     0.401520000000     0.376200000000     0          
H9       H      0.302100000000     0.411500000000     0.402200000000     0          
C17      C      0.354870000000     0.371330000000     0.372200000000     0          
C18      C      0.370240000000     0.358100000000     0.332430000000     0          
H10      H      0.403800000000     0.337800000000     0.327300000000     0          
C19      C      0.333280000000     0.376600000000     0.301500000000     0          
H11      H      0.341900000000     0.367500000000     0.275200000000     0          
C20      C      0.391960000000     0.351040000000     0.403740000000     0          
O1       O      0.912450000000     0.784500000000     0.034880000000     0          
O4       O      0.880270000000     0.705320000000     0.058460000000     0          
O5       O      0.932980000000     0.741630000000     0.105230000000     0          
O6       O      0.564440000000     0.674500000000     0.395290000000     0          
O7       O      0.623500000000     0.637980000000     0.439280000000     0          
C1       C      0.896000000000     0.712520000000     0.094030000000     0          
C2       C      0.871730000000     0.683270000000     0.125340000000     0          
C3       C      0.840820000000     0.646590000000     0.112980000000     0          
H2       H      0.834700000000     0.641100000000     0.085600000000     0          
C4       C      0.818760000000     0.617710000000     0.141460000000     0          
H3       H      0.797500000000     0.592400000000     0.133200000000     0          
C5       C      0.827500000000     0.625380000000     0.181480000000     0          
C6       C      0.853300000000     0.662250000000     0.192350000000     0          
H4       H      0.856100000000     0.669100000000     0.219700000000     0          
C7       C      0.876500000000     0.691010000000     0.164420000000     0          
H5       H      0.896100000000     0.716700000000     0.173100000000     0          
C8       C      0.803920000000     0.594800000000     0.209400000000     0          
C9       C      0.815720000000     0.551630000000     0.202980000000     0          
H6       H      0.838700000000     0.542300000000     0.180000000000     0          
C10      C      0.792900000000     0.522710000000     0.231040000000     0          
C11      C      0.760050000000     0.534360000000     0.264500000000     0          
C12      C      0.747890000000     0.577900000000     0.273000000000     0          
C13      C      0.772540000000     0.606890000000     0.244430000000     0          
H7       H      0.767300000000     0.636200000000     0.249500000000     0          
C14      C      0.713530000000     0.593570000000     0.307060000000     0          
C15      C      0.724940000000     0.579910000000     0.345100000000     0          
H8       H      0.756400000000     0.558300000000     0.350200000000     0          
C16      C      0.689360000000     0.598480000000     0.376200000000     0          
H9       H      0.697900000000     0.588500000000     0.402200000000     0          
C17      C      0.645130000000     0.628670000000     0.372200000000     0          
C18      C      0.629760000000     0.641900000000     0.332430000000     0          
H10      H      0.596200000000     0.662200000000     0.327300000000     0          
C19      C      0.666720000000     0.623400000000     0.301500000000     0          
H11      H      0.658100000000     0.632500000000     0.275200000000     0          
C20      C      0.608040000000     0.648960000000     0.403740000000     0          
O1       O      0.087550000000     0.784500000000     0.965120000000     0          
O4       O      0.119730000000     0.705320000000     0.941540000000     0          
O5       O      0.067020000000     0.741630000000     0.894770000000     0          
O6       O      0.435560000000     0.674500000000     0.604710000000     0          
O7       O      0.376500000000     0.637980000000     0.560720000000     0          
C1       C      0.104000000000     0.712520000000     0.905970000000     0          
C2       C      0.128270000000     0.683270000000     0.874660000000     0          
C3       C      0.159180000000     0.646590000000     0.887020000000     0          
H2       H      0.165300000000     0.641100000000     0.914400000000     0          
C4       C      0.181240000000     0.617710000000     0.858540000000     0          
H3       H      0.202500000000     0.592400000000     0.866800000000     0          
C5       C      0.172500000000     0.625380000000     0.818520000000     0          
C6       C      0.146700000000     0.662250000000     0.807650000000     0          
H4       H      0.143900000000     0.669100000000     0.780300000000     0          
C7       C      0.123500000000     0.691010000000     0.835580000000     0          
H5       H      0.103900000000     0.716700000000     0.826900000000     0          
C8       C      0.196080000000     0.594800000000     0.790600000000     0          
C9       C      0.184280000000     0.551630000000     0.797020000000     0          
H6       H      0.161300000000     0.542300000000     0.820000000000     0          
C10      C      0.207100000000     0.522710000000     0.768960000000     0          
C11      C      0.239950000000     0.534360000000     0.735500000000     0          
C12      C      0.252110000000     0.577900000000     0.727000000000     0          
C13      C      0.227460000000     0.606890000000     0.755570000000     0          
H7       H      0.232700000000     0.636200000000     0.750500000000     0          
C14      C      0.286470000000     0.593570000000     0.692940000000     0          
C15      C      0.275060000000     0.579910000000     0.654900000000     0          
H8       H      0.243600000000     0.558300000000     0.649800000000     0          
C16      C      0.310640000000     0.598480000000     0.623800000000     0          
H9       H      0.302100000000     0.588500000000     0.597800000000     0          
C17      C      0.354870000000     0.628670000000     0.627800000000     0          
C18      C      0.370240000000     0.641900000000     0.667570000000     0          
H10      H      0.403800000000     0.662200000000     0.672700000000     0          
C19      C      0.333280000000     0.623400000000     0.698500000000     0          
H11      H      0.341900000000     0.632500000000     0.724800000000     0          
C20      C      0.391960000000     0.648960000000     0.596260000000     0          
O1       O      0.912450000000     0.215500000000     0.965120000000     0          
O4       O      0.880270000000     0.294680000000     0.941540000000     0          
O5       O      0.932980000000     0.258370000000     0.894770000000     0          
O6       O      0.564440000000     0.325500000000     0.604710000000     0          
O7       O      0.623500000000     0.362020000000     0.560720000000     0          
C1       C      0.896000000000     0.287480000000     0.905970000000     0          
C2       C      0.871730000000     0.316730000000     0.874660000000     0          
C3       C      0.840820000000     0.353410000000     0.887020000000     0          
H2       H      0.834700000000     0.358900000000     0.914400000000     0          
C4       C      0.818760000000     0.382290000000     0.858540000000     0          
H3       H      0.797500000000     0.407600000000     0.866800000000     0          
C5       C      0.827500000000     0.374620000000     0.818520000000     0          
C6       C      0.853300000000     0.337750000000     0.807650000000     0          
H4       H      0.856100000000     0.330900000000     0.780300000000     0          
C7       C      0.876500000000     0.308990000000     0.835580000000     0          
H5       H      0.896100000000     0.283300000000     0.826900000000     0          
C8       C      0.803920000000     0.405200000000     0.790600000000     0          
C9       C      0.815720000000     0.448370000000     0.797020000000     0          
H6       H      0.838700000000     0.457700000000     0.820000000000     0          
C10      C      0.792900000000     0.477290000000     0.768960000000     0          
C11      C      0.760050000000     0.465640000000     0.735500000000     0          
C12      C      0.747890000000     0.422100000000     0.727000000000     0          
C13      C      0.772540000000     0.393110000000     0.755570000000     0          
H7       H      0.767300000000     0.363800000000     0.750500000000     0          
C14      C      0.713530000000     0.406430000000     0.692940000000     0          
C15      C      0.724940000000     0.420090000000     0.654900000000     0          
H8       H      0.756400000000     0.441700000000     0.649800000000     0          
C16      C      0.689360000000     0.401520000000     0.623800000000     0          
H9       H      0.697900000000     0.411500000000     0.597800000000     0          
C17      C      0.645130000000     0.371330000000     0.627800000000     0          
C18      C      0.629760000000     0.358100000000     0.667570000000     0          
H10      H      0.596200000000     0.337800000000     0.672700000000     0          
C19      C      0.666720000000     0.376600000000     0.698500000000     0          
H11      H      0.658100000000     0.367500000000     0.724800000000     0          
C20      C      0.608040000000     0.351040000000     0.596260000000     0          


