data_HERHEU

_audit_creation_method RASPA-1.0
_audit_creation_date 2020-11-2
_audit_author_name 'Rocio Bueno-Perez'

_cell_length_a    16.1168
_cell_length_b    33.0336
_cell_length_c    35.7249
_cell_angle_alpha 90
_cell_angle_beta  90
_cell_angle_gamma 90
_cell_volume      19019.8

_symmetry_cell_setting          orthorhombic
_symmetry_space_group_name_Hall 'P 1'
_symmetry_space_group_name_H-M  'P 1'
_symmetry_Int_Tables_number     1

_symmetry_equiv_pos_as_xyz 'x,y,z'

loop_
_atom_site_label
_atom_site_type_symbol
_atom_site_fract_x
_atom_site_fract_y
_atom_site_fract_z
_atom_site_charge
O2       O      0.582200000000     0.539580000000     0.599030000000     0          
O5       O      0.651700000000     0.577270000000     0.557520000000     0          
C2       C      0.729100000000     0.706110000000     0.717810000000     0          
H1       H      0.714800000000     0.720600000000     0.695800000000     0          
C3       C      0.728700000000     0.664250000000     0.717390000000     0          
C4       C      0.627000000000     0.568470000000     0.590440000000     0          
C5       C      0.703700000000     0.640750000000     0.683980000000     0          
C7       C      0.655700000000     0.594600000000     0.622300000000     0          
C8       C      0.728500000000     0.651200000000     0.648160000000     0          
H3       H      0.762000000000     0.674500000000     0.644400000000     0          
C9       C      0.704600000000     0.627840000000     0.617760000000     0          
H4       H      0.722700000000     0.635200000000     0.593400000000     0          
C10      C      0.655200000000     0.606730000000     0.688070000000     0          
H5       H      0.638800000000     0.598700000000     0.712500000000     0          
C11      C      0.630000000000     0.584270000000     0.658160000000     0          
H6       H      0.594800000000     0.561500000000     0.661800000000     0          
Zr1      Zr     0.500000000000     0.500000000000     0.568020000000     0          
Zr2      Zr     0.390520000000     0.446150000000     0.500000000000     0          
O1       O      0.387700000000     0.500000000000     0.532930000000     0          
O3       O      0.500000000000     0.445690000000     0.533780000000     0          
C1       C      0.750000000000     0.727140000000     0.750000000000     0          
C6       C      0.750000000000     0.643630000000     0.750000000000     0          
H2       H      0.750000000000     0.614900000000     0.750000000000     0          
O2       O      0.417800000000     0.460420000000     0.599030000000     0          
O5       O      0.348300000000     0.422730000000     0.557520000000     0          
C2       C      0.270900000000     0.293890000000     0.717810000000     0          
H1       H      0.285200000000     0.279400000000     0.695800000000     0          
C3       C      0.271300000000     0.335750000000     0.717390000000     0          
C4       C      0.373000000000     0.431530000000     0.590440000000     0          
C5       C      0.296300000000     0.359250000000     0.683980000000     0          
C7       C      0.344300000000     0.405400000000     0.622300000000     0          
C8       C      0.271500000000     0.348800000000     0.648160000000     0          
H3       H      0.238000000000     0.325500000000     0.644400000000     0          
C9       C      0.295400000000     0.372160000000     0.617760000000     0          
H4       H      0.277300000000     0.364800000000     0.593400000000     0          
C10      C      0.344800000000     0.393270000000     0.688070000000     0          
H5       H      0.361200000000     0.401300000000     0.712500000000     0          
C11      C      0.370000000000     0.415730000000     0.658160000000     0          
H6       H      0.405200000000     0.438500000000     0.661800000000     0          
Zr2      Zr     0.609480000000     0.553850000000     0.500000000000     0          
O1       O      0.612300000000     0.500000000000     0.532930000000     0          
O3       O      0.500000000000     0.554310000000     0.533780000000     0          
C1       C      0.250000000000     0.272860000000     0.750000000000     0          
C6       C      0.250000000000     0.356370000000     0.750000000000     0          
H2       H      0.250000000000     0.385100000000     0.750000000000     0          
O2       O      0.582200000000     0.460420000000     0.400970000000     0          
O5       O      0.651700000000     0.422730000000     0.442480000000     0          
C2       C      0.729100000000     0.293890000000     0.282190000000     0          
H1       H      0.714800000000     0.279400000000     0.304200000000     0          
C3       C      0.728700000000     0.335750000000     0.282610000000     0          
C4       C      0.627000000000     0.431530000000     0.409560000000     0          
C5       C      0.703700000000     0.359250000000     0.316020000000     0          
C7       C      0.655700000000     0.405400000000     0.377700000000     0          
C8       C      0.728500000000     0.348800000000     0.351840000000     0          
H3       H      0.762000000000     0.325500000000     0.355600000000     0          
C9       C      0.704600000000     0.372160000000     0.382240000000     0          
H4       H      0.722700000000     0.364800000000     0.406600000000     0          
C10      C      0.655200000000     0.393270000000     0.311930000000     0          
H5       H      0.638800000000     0.401300000000     0.287500000000     0          
C11      C      0.630000000000     0.415730000000     0.341840000000     0          
H6       H      0.594800000000     0.438500000000     0.338200000000     0          
Zr1      Zr     0.500000000000     0.500000000000     0.431980000000     0          
Zr2      Zr     0.390520000000     0.553850000000     0.500000000000     0          
O1       O      0.387700000000     0.500000000000     0.467070000000     0          
O3       O      0.500000000000     0.554310000000     0.466220000000     0          
C1       C      0.750000000000     0.272860000000     0.250000000000     0          
C6       C      0.750000000000     0.356370000000     0.250000000000     0          
H2       H      0.750000000000     0.385100000000     0.250000000000     0          
O2       O      0.417800000000     0.539580000000     0.400970000000     0          
O5       O      0.348300000000     0.577270000000     0.442480000000     0          
C2       C      0.270900000000     0.706110000000     0.282190000000     0          
H1       H      0.285200000000     0.720600000000     0.304200000000     0          
C3       C      0.271300000000     0.664250000000     0.282610000000     0          
C4       C      0.373000000000     0.568470000000     0.409560000000     0          
C5       C      0.296300000000     0.640750000000     0.316020000000     0          
C7       C      0.344300000000     0.594600000000     0.377700000000     0          
C8       C      0.271500000000     0.651200000000     0.351840000000     0          
H3       H      0.238000000000     0.674500000000     0.355600000000     0          
C9       C      0.295400000000     0.627840000000     0.382240000000     0          
H4       H      0.277300000000     0.635200000000     0.406600000000     0          
C10      C      0.344800000000     0.606730000000     0.311930000000     0          
H5       H      0.361200000000     0.598700000000     0.287500000000     0          
C11      C      0.370000000000     0.584270000000     0.341840000000     0          
H6       H      0.405200000000     0.561500000000     0.338200000000     0          
Zr2      Zr     0.609480000000     0.446150000000     0.500000000000     0          
O1       O      0.612300000000     0.500000000000     0.467070000000     0          
O3       O      0.500000000000     0.445690000000     0.466220000000     0          
C1       C      0.250000000000     0.727140000000     0.250000000000     0          
C6       C      0.250000000000     0.643630000000     0.250000000000     0          
H2       H      0.250000000000     0.614900000000     0.250000000000     0          
O2       O      0.417800000000     0.460420000000     0.400970000000     0          
O5       O      0.348300000000     0.422730000000     0.442480000000     0          
C2       C      0.270900000000     0.293890000000     0.282190000000     0          
H1       H      0.285200000000     0.279400000000     0.304200000000     0          
C3       C      0.271300000000     0.335750000000     0.282610000000     0          
C4       C      0.373000000000     0.431530000000     0.409560000000     0          
C5       C      0.296300000000     0.359250000000     0.316020000000     0          
C7       C      0.344300000000     0.405400000000     0.377700000000     0          
C8       C      0.271500000000     0.348800000000     0.351840000000     0          
H3       H      0.238000000000     0.325500000000     0.355600000000     0          
C9       C      0.295400000000     0.372160000000     0.382240000000     0          
H4       H      0.277300000000     0.364800000000     0.406600000000     0          
C10      C      0.344800000000     0.393270000000     0.311930000000     0          
H5       H      0.361200000000     0.401300000000     0.287500000000     0          
C11      C      0.370000000000     0.415730000000     0.341840000000     0          
H6       H      0.405200000000     0.438500000000     0.338200000000     0          
C1       C      0.250000000000     0.272860000000     0.250000000000     0          
C6       C      0.250000000000     0.356370000000     0.250000000000     0          
H2       H      0.250000000000     0.385100000000     0.250000000000     0          
O2       O      0.582200000000     0.539580000000     0.400970000000     0          
O5       O      0.651700000000     0.577270000000     0.442480000000     0          
C2       C      0.729100000000     0.706110000000     0.282190000000     0          
H1       H      0.714800000000     0.720600000000     0.304200000000     0          
C3       C      0.728700000000     0.664250000000     0.282610000000     0          
C4       C      0.627000000000     0.568470000000     0.409560000000     0          
C5       C      0.703700000000     0.640750000000     0.316020000000     0          
C7       C      0.655700000000     0.594600000000     0.377700000000     0          
C8       C      0.728500000000     0.651200000000     0.351840000000     0          
H3       H      0.762000000000     0.674500000000     0.355600000000     0          
C9       C      0.704600000000     0.627840000000     0.382240000000     0          
H4       H      0.722700000000     0.635200000000     0.406600000000     0          
C10      C      0.655200000000     0.606730000000     0.311930000000     0          
H5       H      0.638800000000     0.598700000000     0.287500000000     0          
C11      C      0.630000000000     0.584270000000     0.341840000000     0          
H6       H      0.594800000000     0.561500000000     0.338200000000     0          
C1       C      0.750000000000     0.727140000000     0.250000000000     0          
C6       C      0.750000000000     0.643630000000     0.250000000000     0          
H2       H      0.750000000000     0.614900000000     0.250000000000     0          
O2       O      0.417800000000     0.539580000000     0.599030000000     0          
O5       O      0.348300000000     0.577270000000     0.557520000000     0          
C2       C      0.270900000000     0.706110000000     0.717810000000     0          
H1       H      0.285200000000     0.720600000000     0.695800000000     0          
C3       C      0.271300000000     0.664250000000     0.717390000000     0          
C4       C      0.373000000000     0.568470000000     0.590440000000     0          
C5       C      0.296300000000     0.640750000000     0.683980000000     0          
C7       C      0.344300000000     0.594600000000     0.622300000000     0          
C8       C      0.271500000000     0.651200000000     0.648160000000     0          
H3       H      0.238000000000     0.674500000000     0.644400000000     0          
C9       C      0.295400000000     0.627840000000     0.617760000000     0          
H4       H      0.277300000000     0.635200000000     0.593400000000     0          
C10      C      0.344800000000     0.606730000000     0.688070000000     0          
H5       H      0.361200000000     0.598700000000     0.712500000000     0          
C11      C      0.370000000000     0.584270000000     0.658160000000     0          
H6       H      0.405200000000     0.561500000000     0.661800000000     0          
C1       C      0.250000000000     0.727140000000     0.750000000000     0          
C6       C      0.250000000000     0.643630000000     0.750000000000     0          
H2       H      0.250000000000     0.614900000000     0.750000000000     0          
O2       O      0.582200000000     0.460420000000     0.599030000000     0          
O5       O      0.651700000000     0.422730000000     0.557520000000     0          
C2       C      0.729100000000     0.293890000000     0.717810000000     0          
H1       H      0.714800000000     0.279400000000     0.695800000000     0          
C3       C      0.728700000000     0.335750000000     0.717390000000     0          
C4       C      0.627000000000     0.431530000000     0.590440000000     0          
C5       C      0.703700000000     0.359250000000     0.683980000000     0          
C7       C      0.655700000000     0.405400000000     0.622300000000     0          
C8       C      0.728500000000     0.348800000000     0.648160000000     0          
H3       H      0.762000000000     0.325500000000     0.644400000000     0          
C9       C      0.704600000000     0.372160000000     0.617760000000     0          
H4       H      0.722700000000     0.364800000000     0.593400000000     0          
C10      C      0.655200000000     0.393270000000     0.688070000000     0          
H5       H      0.638800000000     0.401300000000     0.712500000000     0          
C11      C      0.630000000000     0.415730000000     0.658160000000     0          
H6       H      0.594800000000     0.438500000000     0.661800000000     0          
C1       C      0.750000000000     0.272860000000     0.750000000000     0          
C6       C      0.750000000000     0.356370000000     0.750000000000     0          
H2       H      0.750000000000     0.385100000000     0.750000000000     0          
O2       O      0.582200000000     0.039580000000     0.099030000000     0          
O5       O      0.651700000000     0.077270000000     0.057520000000     0          
C2       C      0.729100000000     0.206110000000     0.217810000000     0          
H1       H      0.714800000000     0.220600000000     0.195800000000     0          
C3       C      0.728700000000     0.164250000000     0.217390000000     0          
C4       C      0.627000000000     0.068470000000     0.090440000000     0          
C5       C      0.703700000000     0.140750000000     0.183980000000     0          
C7       C      0.655700000000     0.094600000000     0.122300000000     0          
C8       C      0.728500000000     0.151200000000     0.148160000000     0          
H3       H      0.762000000000     0.174500000000     0.144400000000     0          
C9       C      0.704600000000     0.127840000000     0.117760000000     0          
H4       H      0.722700000000     0.135200000000     0.093400000000     0          
C10      C      0.655200000000     0.106730000000     0.188070000000     0          
H5       H      0.638800000000     0.098700000000     0.212500000000     0          
C11      C      0.630000000000     0.084270000000     0.158160000000     0          
H6       H      0.594800000000     0.061500000000     0.161800000000     0          
Zr1      Zr     0.500000000000     0.000000000000     0.068020000000     0          
Zr2      Zr     0.390520000000     0.946150000000     0.000000000000     0          
O1       O      0.387700000000     0.000000000000     0.032930000000     0          
O3       O      0.500000000000     0.945690000000     0.033780000000     0          
C1       C      0.750000000000     0.227140000000     0.250000000000     0          
C6       C      0.750000000000     0.143630000000     0.250000000000     0          
H2       H      0.750000000000     0.114900000000     0.250000000000     0          
O2       O      0.417800000000     0.960420000000     0.099030000000     0          
O5       O      0.348300000000     0.922730000000     0.057520000000     0          
C2       C      0.270900000000     0.793890000000     0.217810000000     0          
H1       H      0.285200000000     0.779400000000     0.195800000000     0          
C3       C      0.271300000000     0.835750000000     0.217390000000     0          
C4       C      0.373000000000     0.931530000000     0.090440000000     0          
C5       C      0.296300000000     0.859250000000     0.183980000000     0          
C7       C      0.344300000000     0.905400000000     0.122300000000     0          
C8       C      0.271500000000     0.848800000000     0.148160000000     0          
H3       H      0.238000000000     0.825500000000     0.144400000000     0          
C9       C      0.295400000000     0.872160000000     0.117760000000     0          
H4       H      0.277300000000     0.864800000000     0.093400000000     0          
C10      C      0.344800000000     0.893270000000     0.188070000000     0          
H5       H      0.361200000000     0.901300000000     0.212500000000     0          
C11      C      0.370000000000     0.915730000000     0.158160000000     0          
H6       H      0.405200000000     0.938500000000     0.161800000000     0          
Zr2      Zr     0.609480000000     0.053850000000     0.000000000000     0          
O1       O      0.612300000000     0.000000000000     0.032930000000     0          
O3       O      0.500000000000     0.054310000000     0.033780000000     0          
C1       C      0.250000000000     0.772860000000     0.250000000000     0          
C6       C      0.250000000000     0.856370000000     0.250000000000     0          
H2       H      0.250000000000     0.885100000000     0.250000000000     0          
O2       O      0.582200000000     0.960420000000     0.900970000000     0          
O5       O      0.651700000000     0.922730000000     0.942480000000     0          
C2       C      0.729100000000     0.793890000000     0.782190000000     0          
H1       H      0.714800000000     0.779400000000     0.804200000000     0          
C3       C      0.728700000000     0.835750000000     0.782610000000     0          
C4       C      0.627000000000     0.931530000000     0.909560000000     0          
C5       C      0.703700000000     0.859250000000     0.816020000000     0          
C7       C      0.655700000000     0.905400000000     0.877700000000     0          
C8       C      0.728500000000     0.848800000000     0.851840000000     0          
H3       H      0.762000000000     0.825500000000     0.855600000000     0          
C9       C      0.704600000000     0.872160000000     0.882240000000     0          
H4       H      0.722700000000     0.864800000000     0.906600000000     0          
C10      C      0.655200000000     0.893270000000     0.811930000000     0          
H5       H      0.638800000000     0.901300000000     0.787500000000     0          
C11      C      0.630000000000     0.915730000000     0.841840000000     0          
H6       H      0.594800000000     0.938500000000     0.838200000000     0          
Zr1      Zr     0.500000000000     0.000000000000     0.931980000000     0          
Zr2      Zr     0.390520000000     0.053850000000     0.000000000000     0          
O1       O      0.387700000000     0.000000000000     0.967070000000     0          
O3       O      0.500000000000     0.054310000000     0.966220000000     0          
C1       C      0.750000000000     0.772860000000     0.750000000000     0          
C6       C      0.750000000000     0.856370000000     0.750000000000     0          
H2       H      0.750000000000     0.885100000000     0.750000000000     0          
O2       O      0.417800000000     0.039580000000     0.900970000000     0          
O5       O      0.348300000000     0.077270000000     0.942480000000     0          
C2       C      0.270900000000     0.206110000000     0.782190000000     0          
H1       H      0.285200000000     0.220600000000     0.804200000000     0          
C3       C      0.271300000000     0.164250000000     0.782610000000     0          
C4       C      0.373000000000     0.068470000000     0.909560000000     0          
C5       C      0.296300000000     0.140750000000     0.816020000000     0          
C7       C      0.344300000000     0.094600000000     0.877700000000     0          
C8       C      0.271500000000     0.151200000000     0.851840000000     0          
H3       H      0.238000000000     0.174500000000     0.855600000000     0          
C9       C      0.295400000000     0.127840000000     0.882240000000     0          
H4       H      0.277300000000     0.135200000000     0.906600000000     0          
C10      C      0.344800000000     0.106730000000     0.811930000000     0          
H5       H      0.361200000000     0.098700000000     0.787500000000     0          
C11      C      0.370000000000     0.084270000000     0.841840000000     0          
H6       H      0.405200000000     0.061500000000     0.838200000000     0          
Zr2      Zr     0.609480000000     0.946150000000     0.000000000000     0          
O1       O      0.612300000000     0.000000000000     0.967070000000     0          
O3       O      0.500000000000     0.945690000000     0.966220000000     0          
C1       C      0.250000000000     0.227140000000     0.750000000000     0          
C6       C      0.250000000000     0.143630000000     0.750000000000     0          
H2       H      0.250000000000     0.114900000000     0.750000000000     0          
O2       O      0.417800000000     0.960420000000     0.900970000000     0          
O5       O      0.348300000000     0.922730000000     0.942480000000     0          
C2       C      0.270900000000     0.793890000000     0.782190000000     0          
H1       H      0.285200000000     0.779400000000     0.804200000000     0          
C3       C      0.271300000000     0.835750000000     0.782610000000     0          
C4       C      0.373000000000     0.931530000000     0.909560000000     0          
C5       C      0.296300000000     0.859250000000     0.816020000000     0          
C7       C      0.344300000000     0.905400000000     0.877700000000     0          
C8       C      0.271500000000     0.848800000000     0.851840000000     0          
H3       H      0.238000000000     0.825500000000     0.855600000000     0          
C9       C      0.295400000000     0.872160000000     0.882240000000     0          
H4       H      0.277300000000     0.864800000000     0.906600000000     0          
C10      C      0.344800000000     0.893270000000     0.811930000000     0          
H5       H      0.361200000000     0.901300000000     0.787500000000     0          
C11      C      0.370000000000     0.915730000000     0.841840000000     0          
H6       H      0.405200000000     0.938500000000     0.838200000000     0          
C1       C      0.250000000000     0.772860000000     0.750000000000     0          
C6       C      0.250000000000     0.856370000000     0.750000000000     0          
H2       H      0.250000000000     0.885100000000     0.750000000000     0          
O2       O      0.582200000000     0.039580000000     0.900970000000     0          
O5       O      0.651700000000     0.077270000000     0.942480000000     0          
C2       C      0.729100000000     0.206110000000     0.782190000000     0          
H1       H      0.714800000000     0.220600000000     0.804200000000     0          
C3       C      0.728700000000     0.164250000000     0.782610000000     0          
C4       C      0.627000000000     0.068470000000     0.909560000000     0          
C5       C      0.703700000000     0.140750000000     0.816020000000     0          
C7       C      0.655700000000     0.094600000000     0.877700000000     0          
C8       C      0.728500000000     0.151200000000     0.851840000000     0          
H3       H      0.762000000000     0.174500000000     0.855600000000     0          
C9       C      0.704600000000     0.127840000000     0.882240000000     0          
H4       H      0.722700000000     0.135200000000     0.906600000000     0          
C10      C      0.655200000000     0.106730000000     0.811930000000     0          
H5       H      0.638800000000     0.098700000000     0.787500000000     0          
C11      C      0.630000000000     0.084270000000     0.841840000000     0          
H6       H      0.594800000000     0.061500000000     0.838200000000     0          
C1       C      0.750000000000     0.227140000000     0.750000000000     0          
C6       C      0.750000000000     0.143630000000     0.750000000000     0          
H2       H      0.750000000000     0.114900000000     0.750000000000     0          
O2       O      0.417800000000     0.039580000000     0.099030000000     0          
O5       O      0.348300000000     0.077270000000     0.057520000000     0          
C2       C      0.270900000000     0.206110000000     0.217810000000     0          
H1       H      0.285200000000     0.220600000000     0.195800000000     0          
C3       C      0.271300000000     0.164250000000     0.217390000000     0          
C4       C      0.373000000000     0.068470000000     0.090440000000     0          
C5       C      0.296300000000     0.140750000000     0.183980000000     0          
C7       C      0.344300000000     0.094600000000     0.122300000000     0          
C8       C      0.271500000000     0.151200000000     0.148160000000     0          
H3       H      0.238000000000     0.174500000000     0.144400000000     0          
C9       C      0.295400000000     0.127840000000     0.117760000000     0          
H4       H      0.277300000000     0.135200000000     0.093400000000     0          
C10      C      0.344800000000     0.106730000000     0.188070000000     0          
H5       H      0.361200000000     0.098700000000     0.212500000000     0          
C11      C      0.370000000000     0.084270000000     0.158160000000     0          
H6       H      0.405200000000     0.061500000000     0.161800000000     0          
C1       C      0.250000000000     0.227140000000     0.250000000000     0          
C6       C      0.250000000000     0.143630000000     0.250000000000     0          
H2       H      0.250000000000     0.114900000000     0.250000000000     0          
O2       O      0.582200000000     0.960420000000     0.099030000000     0          
O5       O      0.651700000000     0.922730000000     0.057520000000     0          
C2       C      0.729100000000     0.793890000000     0.217810000000     0          
H1       H      0.714800000000     0.779400000000     0.195800000000     0          
C3       C      0.728700000000     0.835750000000     0.217390000000     0          
C4       C      0.627000000000     0.931530000000     0.090440000000     0          
C5       C      0.703700000000     0.859250000000     0.183980000000     0          
C7       C      0.655700000000     0.905400000000     0.122300000000     0          
C8       C      0.728500000000     0.848800000000     0.148160000000     0          
H3       H      0.762000000000     0.825500000000     0.144400000000     0          
C9       C      0.704600000000     0.872160000000     0.117760000000     0          
H4       H      0.722700000000     0.864800000000     0.093400000000     0          
C10      C      0.655200000000     0.893270000000     0.188070000000     0          
H5       H      0.638800000000     0.901300000000     0.212500000000     0          
C11      C      0.630000000000     0.915730000000     0.158160000000     0          
H6       H      0.594800000000     0.938500000000     0.161800000000     0          
C1       C      0.750000000000     0.772860000000     0.250000000000     0          
C6       C      0.750000000000     0.856370000000     0.250000000000     0          
H2       H      0.750000000000     0.885100000000     0.250000000000     0          
O2       O      0.082200000000     0.539580000000     0.099030000000     0          
O5       O      0.151700000000     0.577270000000     0.057520000000     0          
C2       C      0.229100000000     0.706110000000     0.217810000000     0          
H1       H      0.214800000000     0.720600000000     0.195800000000     0          
C3       C      0.228700000000     0.664250000000     0.217390000000     0          
C4       C      0.127000000000     0.568470000000     0.090440000000     0          
C5       C      0.203700000000     0.640750000000     0.183980000000     0          
C7       C      0.155700000000     0.594600000000     0.122300000000     0          
C8       C      0.228500000000     0.651200000000     0.148160000000     0          
H3       H      0.262000000000     0.674500000000     0.144400000000     0          
C9       C      0.204600000000     0.627840000000     0.117760000000     0          
H4       H      0.222700000000     0.635200000000     0.093400000000     0          
C10      C      0.155200000000     0.606730000000     0.188070000000     0          
H5       H      0.138800000000     0.598700000000     0.212500000000     0          
C11      C      0.130000000000     0.584270000000     0.158160000000     0          
H6       H      0.094800000000     0.561500000000     0.161800000000     0          
Zr1      Zr     0.000000000000     0.500000000000     0.068020000000     0          
Zr2      Zr     0.890520000000     0.446150000000     0.000000000000     0          
O1       O      0.887700000000     0.500000000000     0.032930000000     0          
O3       O      0.000000000000     0.445690000000     0.033780000000     0          
O2       O      0.917800000000     0.460420000000     0.099030000000     0          
O5       O      0.848300000000     0.422730000000     0.057520000000     0          
C2       C      0.770900000000     0.293890000000     0.217810000000     0          
H1       H      0.785200000000     0.279400000000     0.195800000000     0          
C3       C      0.771300000000     0.335750000000     0.217390000000     0          
C4       C      0.873000000000     0.431530000000     0.090440000000     0          
C5       C      0.796300000000     0.359250000000     0.183980000000     0          
C7       C      0.844300000000     0.405400000000     0.122300000000     0          
C8       C      0.771500000000     0.348800000000     0.148160000000     0          
H3       H      0.738000000000     0.325500000000     0.144400000000     0          
C9       C      0.795400000000     0.372160000000     0.117760000000     0          
H4       H      0.777300000000     0.364800000000     0.093400000000     0          
C10      C      0.844800000000     0.393270000000     0.188070000000     0          
H5       H      0.861200000000     0.401300000000     0.212500000000     0          
C11      C      0.870000000000     0.415730000000     0.158160000000     0          
H6       H      0.905200000000     0.438500000000     0.161800000000     0          
Zr2      Zr     0.109480000000     0.553850000000     0.000000000000     0          
O1       O      0.112300000000     0.500000000000     0.032930000000     0          
O3       O      0.000000000000     0.554310000000     0.033780000000     0          
O2       O      0.082200000000     0.460420000000     0.900970000000     0          
O5       O      0.151700000000     0.422730000000     0.942480000000     0          
C2       C      0.229100000000     0.293890000000     0.782190000000     0          
H1       H      0.214800000000     0.279400000000     0.804200000000     0          
C3       C      0.228700000000     0.335750000000     0.782610000000     0          
C4       C      0.127000000000     0.431530000000     0.909560000000     0          
C5       C      0.203700000000     0.359250000000     0.816020000000     0          
C7       C      0.155700000000     0.405400000000     0.877700000000     0          
C8       C      0.228500000000     0.348800000000     0.851840000000     0          
H3       H      0.262000000000     0.325500000000     0.855600000000     0          
C9       C      0.204600000000     0.372160000000     0.882240000000     0          
H4       H      0.222700000000     0.364800000000     0.906600000000     0          
C10      C      0.155200000000     0.393270000000     0.811930000000     0          
H5       H      0.138800000000     0.401300000000     0.787500000000     0          
C11      C      0.130000000000     0.415730000000     0.841840000000     0          
H6       H      0.094800000000     0.438500000000     0.838200000000     0          
Zr1      Zr     0.000000000000     0.500000000000     0.931980000000     0          
Zr2      Zr     0.890520000000     0.553850000000     0.000000000000     0          
O1       O      0.887700000000     0.500000000000     0.967070000000     0          
O3       O      0.000000000000     0.554310000000     0.966220000000     0          
O2       O      0.917800000000     0.539580000000     0.900970000000     0          
O5       O      0.848300000000     0.577270000000     0.942480000000     0          
C2       C      0.770900000000     0.706110000000     0.782190000000     0          
H1       H      0.785200000000     0.720600000000     0.804200000000     0          
C3       C      0.771300000000     0.664250000000     0.782610000000     0          
C4       C      0.873000000000     0.568470000000     0.909560000000     0          
C5       C      0.796300000000     0.640750000000     0.816020000000     0          
C7       C      0.844300000000     0.594600000000     0.877700000000     0          
C8       C      0.771500000000     0.651200000000     0.851840000000     0          
H3       H      0.738000000000     0.674500000000     0.855600000000     0          
C9       C      0.795400000000     0.627840000000     0.882240000000     0          
H4       H      0.777300000000     0.635200000000     0.906600000000     0          
C10      C      0.844800000000     0.606730000000     0.811930000000     0          
H5       H      0.861200000000     0.598700000000     0.787500000000     0          
C11      C      0.870000000000     0.584270000000     0.841840000000     0          
H6       H      0.905200000000     0.561500000000     0.838200000000     0          
Zr2      Zr     0.109480000000     0.446150000000     0.000000000000     0          
O1       O      0.112300000000     0.500000000000     0.967070000000     0          
O3       O      0.000000000000     0.445690000000     0.966220000000     0          
O2       O      0.917800000000     0.460420000000     0.900970000000     0          
O5       O      0.848300000000     0.422730000000     0.942480000000     0          
C2       C      0.770900000000     0.293890000000     0.782190000000     0          
H1       H      0.785200000000     0.279400000000     0.804200000000     0          
C3       C      0.771300000000     0.335750000000     0.782610000000     0          
C4       C      0.873000000000     0.431530000000     0.909560000000     0          
C5       C      0.796300000000     0.359250000000     0.816020000000     0          
C7       C      0.844300000000     0.405400000000     0.877700000000     0          
C8       C      0.771500000000     0.348800000000     0.851840000000     0          
H3       H      0.738000000000     0.325500000000     0.855600000000     0          
C9       C      0.795400000000     0.372160000000     0.882240000000     0          
H4       H      0.777300000000     0.364800000000     0.906600000000     0          
C10      C      0.844800000000     0.393270000000     0.811930000000     0          
H5       H      0.861200000000     0.401300000000     0.787500000000     0          
C11      C      0.870000000000     0.415730000000     0.841840000000     0          
H6       H      0.905200000000     0.438500000000     0.838200000000     0          
O2       O      0.082200000000     0.539580000000     0.900970000000     0          
O5       O      0.151700000000     0.577270000000     0.942480000000     0          
C2       C      0.229100000000     0.706110000000     0.782190000000     0          
H1       H      0.214800000000     0.720600000000     0.804200000000     0          
C3       C      0.228700000000     0.664250000000     0.782610000000     0          
C4       C      0.127000000000     0.568470000000     0.909560000000     0          
C5       C      0.203700000000     0.640750000000     0.816020000000     0          
C7       C      0.155700000000     0.594600000000     0.877700000000     0          
C8       C      0.228500000000     0.651200000000     0.851840000000     0          
H3       H      0.262000000000     0.674500000000     0.855600000000     0          
C9       C      0.204600000000     0.627840000000     0.882240000000     0          
H4       H      0.222700000000     0.635200000000     0.906600000000     0          
C10      C      0.155200000000     0.606730000000     0.811930000000     0          
H5       H      0.138800000000     0.598700000000     0.787500000000     0          
C11      C      0.130000000000     0.584270000000     0.841840000000     0          
H6       H      0.094800000000     0.561500000000     0.838200000000     0          
O2       O      0.917800000000     0.539580000000     0.099030000000     0          
O5       O      0.848300000000     0.577270000000     0.057520000000     0          
C2       C      0.770900000000     0.706110000000     0.217810000000     0          
H1       H      0.785200000000     0.720600000000     0.195800000000     0          
C3       C      0.771300000000     0.664250000000     0.217390000000     0          
C4       C      0.873000000000     0.568470000000     0.090440000000     0          
C5       C      0.796300000000     0.640750000000     0.183980000000     0          
C7       C      0.844300000000     0.594600000000     0.122300000000     0          
C8       C      0.771500000000     0.651200000000     0.148160000000     0          
H3       H      0.738000000000     0.674500000000     0.144400000000     0          
C9       C      0.795400000000     0.627840000000     0.117760000000     0          
H4       H      0.777300000000     0.635200000000     0.093400000000     0          
C10      C      0.844800000000     0.606730000000     0.188070000000     0          
H5       H      0.861200000000     0.598700000000     0.212500000000     0          
C11      C      0.870000000000     0.584270000000     0.158160000000     0          
H6       H      0.905200000000     0.561500000000     0.161800000000     0          
O2       O      0.082200000000     0.460420000000     0.099030000000     0          
O5       O      0.151700000000     0.422730000000     0.057520000000     0          
C2       C      0.229100000000     0.293890000000     0.217810000000     0          
H1       H      0.214800000000     0.279400000000     0.195800000000     0          
C3       C      0.228700000000     0.335750000000     0.217390000000     0          
C4       C      0.127000000000     0.431530000000     0.090440000000     0          
C5       C      0.203700000000     0.359250000000     0.183980000000     0          
C7       C      0.155700000000     0.405400000000     0.122300000000     0          
C8       C      0.228500000000     0.348800000000     0.148160000000     0          
H3       H      0.262000000000     0.325500000000     0.144400000000     0          
C9       C      0.204600000000     0.372160000000     0.117760000000     0          
H4       H      0.222700000000     0.364800000000     0.093400000000     0          
C10      C      0.155200000000     0.393270000000     0.188070000000     0          
H5       H      0.138800000000     0.401300000000     0.212500000000     0          
C11      C      0.130000000000     0.415730000000     0.158160000000     0          
H6       H      0.094800000000     0.438500000000     0.161800000000     0          
O2       O      0.082200000000     0.039580000000     0.599030000000     0          
O5       O      0.151700000000     0.077270000000     0.557520000000     0          
C2       C      0.229100000000     0.206110000000     0.717810000000     0          
H1       H      0.214800000000     0.220600000000     0.695800000000     0          
C3       C      0.228700000000     0.164250000000     0.717390000000     0          
C4       C      0.127000000000     0.068470000000     0.590440000000     0          
C5       C      0.203700000000     0.140750000000     0.683980000000     0          
C7       C      0.155700000000     0.094600000000     0.622300000000     0          
C8       C      0.228500000000     0.151200000000     0.648160000000     0          
H3       H      0.262000000000     0.174500000000     0.644400000000     0          
C9       C      0.204600000000     0.127840000000     0.617760000000     0          
H4       H      0.222700000000     0.135200000000     0.593400000000     0          
C10      C      0.155200000000     0.106730000000     0.688070000000     0          
H5       H      0.138800000000     0.098700000000     0.712500000000     0          
C11      C      0.130000000000     0.084270000000     0.658160000000     0          
H6       H      0.094800000000     0.061500000000     0.661800000000     0          
Zr1      Zr     0.000000000000     0.000000000000     0.568020000000     0          
Zr2      Zr     0.890520000000     0.946150000000     0.500000000000     0          
O1       O      0.887700000000     0.000000000000     0.532930000000     0          
O3       O      0.000000000000     0.945690000000     0.533780000000     0          
O2       O      0.917800000000     0.960420000000     0.599030000000     0          
O5       O      0.848300000000     0.922730000000     0.557520000000     0          
C2       C      0.770900000000     0.793890000000     0.717810000000     0          
H1       H      0.785200000000     0.779400000000     0.695800000000     0          
C3       C      0.771300000000     0.835750000000     0.717390000000     0          
C4       C      0.873000000000     0.931530000000     0.590440000000     0          
C5       C      0.796300000000     0.859250000000     0.683980000000     0          
C7       C      0.844300000000     0.905400000000     0.622300000000     0          
C8       C      0.771500000000     0.848800000000     0.648160000000     0          
H3       H      0.738000000000     0.825500000000     0.644400000000     0          
C9       C      0.795400000000     0.872160000000     0.617760000000     0          
H4       H      0.777300000000     0.864800000000     0.593400000000     0          
C10      C      0.844800000000     0.893270000000     0.688070000000     0          
H5       H      0.861200000000     0.901300000000     0.712500000000     0          
C11      C      0.870000000000     0.915730000000     0.658160000000     0          
H6       H      0.905200000000     0.938500000000     0.661800000000     0          
Zr2      Zr     0.109480000000     0.053850000000     0.500000000000     0          
O1       O      0.112300000000     0.000000000000     0.532930000000     0          
O3       O      0.000000000000     0.054310000000     0.533780000000     0          
O2       O      0.082200000000     0.960420000000     0.400970000000     0          
O5       O      0.151700000000     0.922730000000     0.442480000000     0          
C2       C      0.229100000000     0.793890000000     0.282190000000     0          
H1       H      0.214800000000     0.779400000000     0.304200000000     0          
C3       C      0.228700000000     0.835750000000     0.282610000000     0          
C4       C      0.127000000000     0.931530000000     0.409560000000     0          
C5       C      0.203700000000     0.859250000000     0.316020000000     0          
C7       C      0.155700000000     0.905400000000     0.377700000000     0          
C8       C      0.228500000000     0.848800000000     0.351840000000     0          
H3       H      0.262000000000     0.825500000000     0.355600000000     0          
C9       C      0.204600000000     0.872160000000     0.382240000000     0          
H4       H      0.222700000000     0.864800000000     0.406600000000     0          
C10      C      0.155200000000     0.893270000000     0.311930000000     0          
H5       H      0.138800000000     0.901300000000     0.287500000000     0          
C11      C      0.130000000000     0.915730000000     0.341840000000     0          
H6       H      0.094800000000     0.938500000000     0.338200000000     0          
Zr1      Zr     0.000000000000     0.000000000000     0.431980000000     0          
Zr2      Zr     0.890520000000     0.053850000000     0.500000000000     0          
O1       O      0.887700000000     0.000000000000     0.467070000000     0          
O3       O      0.000000000000     0.054310000000     0.466220000000     0          
O2       O      0.917800000000     0.039580000000     0.400970000000     0          
O5       O      0.848300000000     0.077270000000     0.442480000000     0          
C2       C      0.770900000000     0.206110000000     0.282190000000     0          
H1       H      0.785200000000     0.220600000000     0.304200000000     0          
C3       C      0.771300000000     0.164250000000     0.282610000000     0          
C4       C      0.873000000000     0.068470000000     0.409560000000     0          
C5       C      0.796300000000     0.140750000000     0.316020000000     0          
C7       C      0.844300000000     0.094600000000     0.377700000000     0          
C8       C      0.771500000000     0.151200000000     0.351840000000     0          
H3       H      0.738000000000     0.174500000000     0.355600000000     0          
C9       C      0.795400000000     0.127840000000     0.382240000000     0          
H4       H      0.777300000000     0.135200000000     0.406600000000     0          
C10      C      0.844800000000     0.106730000000     0.311930000000     0          
H5       H      0.861200000000     0.098700000000     0.287500000000     0          
C11      C      0.870000000000     0.084270000000     0.341840000000     0          
H6       H      0.905200000000     0.061500000000     0.338200000000     0          
Zr2      Zr     0.109480000000     0.946150000000     0.500000000000     0          
O1       O      0.112300000000     0.000000000000     0.467070000000     0          
O3       O      0.000000000000     0.945690000000     0.466220000000     0          
O2       O      0.917800000000     0.960420000000     0.400970000000     0          
O5       O      0.848300000000     0.922730000000     0.442480000000     0          
C2       C      0.770900000000     0.793890000000     0.282190000000     0          
H1       H      0.785200000000     0.779400000000     0.304200000000     0          
C3       C      0.771300000000     0.835750000000     0.282610000000     0          
C4       C      0.873000000000     0.931530000000     0.409560000000     0          
C5       C      0.796300000000     0.859250000000     0.316020000000     0          
C7       C      0.844300000000     0.905400000000     0.377700000000     0          
C8       C      0.771500000000     0.848800000000     0.351840000000     0          
H3       H      0.738000000000     0.825500000000     0.355600000000     0          
C9       C      0.795400000000     0.872160000000     0.382240000000     0          
H4       H      0.777300000000     0.864800000000     0.406600000000     0          
C10      C      0.844800000000     0.893270000000     0.311930000000     0          
H5       H      0.861200000000     0.901300000000     0.287500000000     0          
C11      C      0.870000000000     0.915730000000     0.341840000000     0          
H6       H      0.905200000000     0.938500000000     0.338200000000     0          
O2       O      0.082200000000     0.039580000000     0.400970000000     0          
O5       O      0.151700000000     0.077270000000     0.442480000000     0          
C2       C      0.229100000000     0.206110000000     0.282190000000     0          
H1       H      0.214800000000     0.220600000000     0.304200000000     0          
C3       C      0.228700000000     0.164250000000     0.282610000000     0          
C4       C      0.127000000000     0.068470000000     0.409560000000     0          
C5       C      0.203700000000     0.140750000000     0.316020000000     0          
C7       C      0.155700000000     0.094600000000     0.377700000000     0          
C8       C      0.228500000000     0.151200000000     0.351840000000     0          
H3       H      0.262000000000     0.174500000000     0.355600000000     0          
C9       C      0.204600000000     0.127840000000     0.382240000000     0          
H4       H      0.222700000000     0.135200000000     0.406600000000     0          
C10      C      0.155200000000     0.106730000000     0.311930000000     0          
H5       H      0.138800000000     0.098700000000     0.287500000000     0          
C11      C      0.130000000000     0.084270000000     0.341840000000     0          
H6       H      0.094800000000     0.061500000000     0.338200000000     0          
O2       O      0.917800000000     0.039580000000     0.599030000000     0          
O5       O      0.848300000000     0.077270000000     0.557520000000     0          
C2       C      0.770900000000     0.206110000000     0.717810000000     0          
H1       H      0.785200000000     0.220600000000     0.695800000000     0          
C3       C      0.771300000000     0.164250000000     0.717390000000     0          
C4       C      0.873000000000     0.068470000000     0.590440000000     0          
C5       C      0.796300000000     0.140750000000     0.683980000000     0          
C7       C      0.844300000000     0.094600000000     0.622300000000     0          
C8       C      0.771500000000     0.151200000000     0.648160000000     0          
H3       H      0.738000000000     0.174500000000     0.644400000000     0          
C9       C      0.795400000000     0.127840000000     0.617760000000     0          
H4       H      0.777300000000     0.135200000000     0.593400000000     0          
C10      C      0.844800000000     0.106730000000     0.688070000000     0          
H5       H      0.861200000000     0.098700000000     0.712500000000     0          
C11      C      0.870000000000     0.084270000000     0.658160000000     0          
H6       H      0.905200000000     0.061500000000     0.661800000000     0          
O2       O      0.082200000000     0.960420000000     0.599030000000     0          
O5       O      0.151700000000     0.922730000000     0.557520000000     0          
C2       C      0.229100000000     0.793890000000     0.717810000000     0          
H1       H      0.214800000000     0.779400000000     0.695800000000     0          
C3       C      0.228700000000     0.835750000000     0.717390000000     0          
C4       C      0.127000000000     0.931530000000     0.590440000000     0          
C5       C      0.203700000000     0.859250000000     0.683980000000     0          
C7       C      0.155700000000     0.905400000000     0.622300000000     0          
C8       C      0.228500000000     0.848800000000     0.648160000000     0          
H3       H      0.262000000000     0.825500000000     0.644400000000     0          
C9       C      0.204600000000     0.872160000000     0.617760000000     0          
H4       H      0.222700000000     0.864800000000     0.593400000000     0          
C10      C      0.155200000000     0.893270000000     0.688070000000     0          
H5       H      0.138800000000     0.901300000000     0.712500000000     0          
C11      C      0.130000000000     0.915730000000     0.658160000000     0          
H6       H      0.094800000000     0.938500000000     0.661800000000     0          


