data_HERHAQ

_audit_creation_method RASPA-1.0
_audit_creation_date 2020-11-2
_audit_author_name 'Rocio Bueno-Perez'

_cell_length_a    19.9638
_cell_length_b    31.8114
_cell_length_c    34.9076
_cell_angle_alpha 90
_cell_angle_beta  90
_cell_angle_gamma 90
_cell_volume      22169

_symmetry_cell_setting          orthorhombic
_symmetry_space_group_name_Hall 'P 1'
_symmetry_space_group_name_H-M  'P 1'
_symmetry_Int_Tables_number     1

_symmetry_equiv_pos_as_xyz 'x,y,z'

loop_
_atom_site_label
_atom_site_type_symbol
_atom_site_fract_x
_atom_site_fract_y
_atom_site_fract_z
_atom_site_charge
O1       O      0.878700000000     0.078830000000     0.057880000000     0          
O2       O      0.933800000000     0.041670000000     0.102000000000     0          
C1       C      0.892000000000     0.069100000000     0.093100000000     0          
C2       C      0.857700000000     0.091300000000     0.124140000000     0          
C3       C      0.865500000000     0.078300000000     0.162510000000     0          
H1       H      0.892700000000     0.054500000000     0.168000000000     0          
C4       C      0.836800000000     0.097600000000     0.190080000000     0          
H2       H      0.838900000000     0.085700000000     0.215000000000     0          
C5       C      0.800300000000     0.138000000000     0.184800000000     0          
C6       C      0.794400000000     0.150500000000     0.147370000000     0          
H3       H      0.770700000000     0.175600000000     0.141800000000     0          
C7       C      0.821400000000     0.128100000000     0.117940000000     0          
H4       H      0.815300000000     0.137700000000     0.092400000000     0          
C8       C      0.773800000000     0.160300000000     0.217680000000     0          
C10      C      0.771700000000     0.205200000000     0.218710000000     0          
H6       H      0.785800000000     0.220900000000     0.197000000000     0          
Zr1      Zr     0.000000000000     0.000000000000     0.070020000000     0          
Zr2      Zr     0.911610000000     0.055940000000     0.000000000000     0          
O3       O      0.000000000000     0.057400000000     0.033700000000     0          
O4       O      0.908900000000     0.000000000000     0.034100000000     0          
C9       C      0.750000000000     0.139500000000     0.250000000000     0          
H5       H      0.750000000000     0.109600000000     0.250000000000     0          
C11      C      0.750000000000     0.225300000000     0.250000000000     0          
O1       O      0.121300000000     0.921170000000     0.057880000000     0          
O2       O      0.066200000000     0.958330000000     0.102000000000     0          
C1       C      0.108000000000     0.930900000000     0.093100000000     0          
C2       C      0.142300000000     0.908700000000     0.124140000000     0          
C3       C      0.134500000000     0.921700000000     0.162510000000     0          
H1       H      0.107300000000     0.945500000000     0.168000000000     0          
C4       C      0.163200000000     0.902400000000     0.190080000000     0          
H2       H      0.161100000000     0.914300000000     0.215000000000     0          
C5       C      0.199700000000     0.862000000000     0.184800000000     0          
C6       C      0.205600000000     0.849500000000     0.147370000000     0          
H3       H      0.229300000000     0.824400000000     0.141800000000     0          
C7       C      0.178600000000     0.871900000000     0.117940000000     0          
H4       H      0.184700000000     0.862300000000     0.092400000000     0          
C8       C      0.226200000000     0.839700000000     0.217680000000     0          
C10      C      0.228300000000     0.794800000000     0.218710000000     0          
H6       H      0.214200000000     0.779100000000     0.197000000000     0          
Zr2      Zr     0.088390000000     0.944060000000     0.000000000000     0          
O3       O      0.000000000000     0.942600000000     0.033700000000     0          
O4       O      0.091100000000     0.000000000000     0.034100000000     0          
C9       C      0.250000000000     0.860500000000     0.250000000000     0          
H5       H      0.250000000000     0.890400000000     0.250000000000     0          
C11      C      0.250000000000     0.774700000000     0.250000000000     0          
O1       O      0.878700000000     0.921170000000     0.942120000000     0          
O2       O      0.933800000000     0.958330000000     0.898000000000     0          
C1       C      0.892000000000     0.930900000000     0.906900000000     0          
C2       C      0.857700000000     0.908700000000     0.875860000000     0          
C3       C      0.865500000000     0.921700000000     0.837490000000     0          
H1       H      0.892700000000     0.945500000000     0.832000000000     0          
C4       C      0.836800000000     0.902400000000     0.809920000000     0          
H2       H      0.838900000000     0.914300000000     0.785000000000     0          
C5       C      0.800300000000     0.862000000000     0.815200000000     0          
C6       C      0.794400000000     0.849500000000     0.852630000000     0          
H3       H      0.770700000000     0.824400000000     0.858200000000     0          
C7       C      0.821400000000     0.871900000000     0.882060000000     0          
H4       H      0.815300000000     0.862300000000     0.907600000000     0          
C8       C      0.773800000000     0.839700000000     0.782320000000     0          
C10      C      0.771700000000     0.794800000000     0.781290000000     0          
H6       H      0.785800000000     0.779100000000     0.803000000000     0          
Zr1      Zr     0.000000000000     0.000000000000     0.929980000000     0          
Zr2      Zr     0.911610000000     0.944060000000     0.000000000000     0          
O3       O      0.000000000000     0.942600000000     0.966300000000     0          
O4       O      0.908900000000     0.000000000000     0.965900000000     0          
C9       C      0.750000000000     0.860500000000     0.750000000000     0          
H5       H      0.750000000000     0.890400000000     0.750000000000     0          
C11      C      0.750000000000     0.774700000000     0.750000000000     0          
O1       O      0.121300000000     0.078830000000     0.942120000000     0          
O2       O      0.066200000000     0.041670000000     0.898000000000     0          
C1       C      0.108000000000     0.069100000000     0.906900000000     0          
C2       C      0.142300000000     0.091300000000     0.875860000000     0          
C3       C      0.134500000000     0.078300000000     0.837490000000     0          
H1       H      0.107300000000     0.054500000000     0.832000000000     0          
C4       C      0.163200000000     0.097600000000     0.809920000000     0          
H2       H      0.161100000000     0.085700000000     0.785000000000     0          
C5       C      0.199700000000     0.138000000000     0.815200000000     0          
C6       C      0.205600000000     0.150500000000     0.852630000000     0          
H3       H      0.229300000000     0.175600000000     0.858200000000     0          
C7       C      0.178600000000     0.128100000000     0.882060000000     0          
H4       H      0.184700000000     0.137700000000     0.907600000000     0          
C8       C      0.226200000000     0.160300000000     0.782320000000     0          
C10      C      0.228300000000     0.205200000000     0.781290000000     0          
H6       H      0.214200000000     0.220900000000     0.803000000000     0          
Zr2      Zr     0.088390000000     0.055940000000     0.000000000000     0          
O3       O      0.000000000000     0.057400000000     0.966300000000     0          
O4       O      0.091100000000     0.000000000000     0.965900000000     0          
C9       C      0.250000000000     0.139500000000     0.750000000000     0          
H5       H      0.250000000000     0.109600000000     0.750000000000     0          
C11      C      0.250000000000     0.225300000000     0.750000000000     0          
O1       O      0.121300000000     0.921170000000     0.942120000000     0          
O2       O      0.066200000000     0.958330000000     0.898000000000     0          
C1       C      0.108000000000     0.930900000000     0.906900000000     0          
C2       C      0.142300000000     0.908700000000     0.875860000000     0          
C3       C      0.134500000000     0.921700000000     0.837490000000     0          
H1       H      0.107300000000     0.945500000000     0.832000000000     0          
C4       C      0.163200000000     0.902400000000     0.809920000000     0          
H2       H      0.161100000000     0.914300000000     0.785000000000     0          
C5       C      0.199700000000     0.862000000000     0.815200000000     0          
C6       C      0.205600000000     0.849500000000     0.852630000000     0          
H3       H      0.229300000000     0.824400000000     0.858200000000     0          
C7       C      0.178600000000     0.871900000000     0.882060000000     0          
H4       H      0.184700000000     0.862300000000     0.907600000000     0          
C8       C      0.226200000000     0.839700000000     0.782320000000     0          
C10      C      0.228300000000     0.794800000000     0.781290000000     0          
H6       H      0.214200000000     0.779100000000     0.803000000000     0          
C9       C      0.250000000000     0.860500000000     0.750000000000     0          
H5       H      0.250000000000     0.890400000000     0.750000000000     0          
C11      C      0.250000000000     0.774700000000     0.750000000000     0          
O1       O      0.878700000000     0.078830000000     0.942120000000     0          
O2       O      0.933800000000     0.041670000000     0.898000000000     0          
C1       C      0.892000000000     0.069100000000     0.906900000000     0          
C2       C      0.857700000000     0.091300000000     0.875860000000     0          
C3       C      0.865500000000     0.078300000000     0.837490000000     0          
H1       H      0.892700000000     0.054500000000     0.832000000000     0          
C4       C      0.836800000000     0.097600000000     0.809920000000     0          
H2       H      0.838900000000     0.085700000000     0.785000000000     0          
C5       C      0.800300000000     0.138000000000     0.815200000000     0          
C6       C      0.794400000000     0.150500000000     0.852630000000     0          
H3       H      0.770700000000     0.175600000000     0.858200000000     0          
C7       C      0.821400000000     0.128100000000     0.882060000000     0          
H4       H      0.815300000000     0.137700000000     0.907600000000     0          
C8       C      0.773800000000     0.160300000000     0.782320000000     0          
C10      C      0.771700000000     0.205200000000     0.781290000000     0          
H6       H      0.785800000000     0.220900000000     0.803000000000     0          
C9       C      0.750000000000     0.139500000000     0.750000000000     0          
H5       H      0.750000000000     0.109600000000     0.750000000000     0          
C11      C      0.750000000000     0.225300000000     0.750000000000     0          
O1       O      0.121300000000     0.078830000000     0.057880000000     0          
O2       O      0.066200000000     0.041670000000     0.102000000000     0          
C1       C      0.108000000000     0.069100000000     0.093100000000     0          
C2       C      0.142300000000     0.091300000000     0.124140000000     0          
C3       C      0.134500000000     0.078300000000     0.162510000000     0          
H1       H      0.107300000000     0.054500000000     0.168000000000     0          
C4       C      0.163200000000     0.097600000000     0.190080000000     0          
H2       H      0.161100000000     0.085700000000     0.215000000000     0          
C5       C      0.199700000000     0.138000000000     0.184800000000     0          
C6       C      0.205600000000     0.150500000000     0.147370000000     0          
H3       H      0.229300000000     0.175600000000     0.141800000000     0          
C7       C      0.178600000000     0.128100000000     0.117940000000     0          
H4       H      0.184700000000     0.137700000000     0.092400000000     0          
C8       C      0.226200000000     0.160300000000     0.217680000000     0          
C10      C      0.228300000000     0.205200000000     0.218710000000     0          
H6       H      0.214200000000     0.220900000000     0.197000000000     0          
C9       C      0.250000000000     0.139500000000     0.250000000000     0          
H5       H      0.250000000000     0.109600000000     0.250000000000     0          
C11      C      0.250000000000     0.225300000000     0.250000000000     0          
O1       O      0.878700000000     0.921170000000     0.057880000000     0          
O2       O      0.933800000000     0.958330000000     0.102000000000     0          
C1       C      0.892000000000     0.930900000000     0.093100000000     0          
C2       C      0.857700000000     0.908700000000     0.124140000000     0          
C3       C      0.865500000000     0.921700000000     0.162510000000     0          
H1       H      0.892700000000     0.945500000000     0.168000000000     0          
C4       C      0.836800000000     0.902400000000     0.190080000000     0          
H2       H      0.838900000000     0.914300000000     0.215000000000     0          
C5       C      0.800300000000     0.862000000000     0.184800000000     0          
C6       C      0.794400000000     0.849500000000     0.147370000000     0          
H3       H      0.770700000000     0.824400000000     0.141800000000     0          
C7       C      0.821400000000     0.871900000000     0.117940000000     0          
H4       H      0.815300000000     0.862300000000     0.092400000000     0          
C8       C      0.773800000000     0.839700000000     0.217680000000     0          
C10      C      0.771700000000     0.794800000000     0.218710000000     0          
H6       H      0.785800000000     0.779100000000     0.197000000000     0          
C9       C      0.750000000000     0.860500000000     0.250000000000     0          
H5       H      0.750000000000     0.890400000000     0.250000000000     0          
C11      C      0.750000000000     0.774700000000     0.250000000000     0          
O1       O      0.878700000000     0.578830000000     0.557880000000     0          
O2       O      0.933800000000     0.541670000000     0.602000000000     0          
C1       C      0.892000000000     0.569100000000     0.593100000000     0          
C2       C      0.857700000000     0.591300000000     0.624140000000     0          
C3       C      0.865500000000     0.578300000000     0.662510000000     0          
H1       H      0.892700000000     0.554500000000     0.668000000000     0          
C4       C      0.836800000000     0.597600000000     0.690080000000     0          
H2       H      0.838900000000     0.585700000000     0.715000000000     0          
C5       C      0.800300000000     0.638000000000     0.684800000000     0          
C6       C      0.794400000000     0.650500000000     0.647370000000     0          
H3       H      0.770700000000     0.675600000000     0.641800000000     0          
C7       C      0.821400000000     0.628100000000     0.617940000000     0          
H4       H      0.815300000000     0.637700000000     0.592400000000     0          
C8       C      0.773800000000     0.660300000000     0.717680000000     0          
C10      C      0.771700000000     0.705200000000     0.718710000000     0          
H6       H      0.785800000000     0.720900000000     0.697000000000     0          
Zr1      Zr     0.000000000000     0.500000000000     0.570020000000     0          
Zr2      Zr     0.911610000000     0.555940000000     0.500000000000     0          
O3       O      0.000000000000     0.557400000000     0.533700000000     0          
O4       O      0.908900000000     0.500000000000     0.534100000000     0          
C9       C      0.750000000000     0.639500000000     0.750000000000     0          
H5       H      0.750000000000     0.609600000000     0.750000000000     0          
C11      C      0.750000000000     0.725300000000     0.750000000000     0          
O1       O      0.121300000000     0.421170000000     0.557880000000     0          
O2       O      0.066200000000     0.458330000000     0.602000000000     0          
C1       C      0.108000000000     0.430900000000     0.593100000000     0          
C2       C      0.142300000000     0.408700000000     0.624140000000     0          
C3       C      0.134500000000     0.421700000000     0.662510000000     0          
H1       H      0.107300000000     0.445500000000     0.668000000000     0          
C4       C      0.163200000000     0.402400000000     0.690080000000     0          
H2       H      0.161100000000     0.414300000000     0.715000000000     0          
C5       C      0.199700000000     0.362000000000     0.684800000000     0          
C6       C      0.205600000000     0.349500000000     0.647370000000     0          
H3       H      0.229300000000     0.324400000000     0.641800000000     0          
C7       C      0.178600000000     0.371900000000     0.617940000000     0          
H4       H      0.184700000000     0.362300000000     0.592400000000     0          
C8       C      0.226200000000     0.339700000000     0.717680000000     0          
C10      C      0.228300000000     0.294800000000     0.718710000000     0          
H6       H      0.214200000000     0.279100000000     0.697000000000     0          
Zr2      Zr     0.088390000000     0.444060000000     0.500000000000     0          
O3       O      0.000000000000     0.442600000000     0.533700000000     0          
O4       O      0.091100000000     0.500000000000     0.534100000000     0          
C9       C      0.250000000000     0.360500000000     0.750000000000     0          
H5       H      0.250000000000     0.390400000000     0.750000000000     0          
C11      C      0.250000000000     0.274700000000     0.750000000000     0          
O1       O      0.878700000000     0.421170000000     0.442120000000     0          
O2       O      0.933800000000     0.458330000000     0.398000000000     0          
C1       C      0.892000000000     0.430900000000     0.406900000000     0          
C2       C      0.857700000000     0.408700000000     0.375860000000     0          
C3       C      0.865500000000     0.421700000000     0.337490000000     0          
H1       H      0.892700000000     0.445500000000     0.332000000000     0          
C4       C      0.836800000000     0.402400000000     0.309920000000     0          
H2       H      0.838900000000     0.414300000000     0.285000000000     0          
C5       C      0.800300000000     0.362000000000     0.315200000000     0          
C6       C      0.794400000000     0.349500000000     0.352630000000     0          
H3       H      0.770700000000     0.324400000000     0.358200000000     0          
C7       C      0.821400000000     0.371900000000     0.382060000000     0          
H4       H      0.815300000000     0.362300000000     0.407600000000     0          
C8       C      0.773800000000     0.339700000000     0.282320000000     0          
C10      C      0.771700000000     0.294800000000     0.281290000000     0          
H6       H      0.785800000000     0.279100000000     0.303000000000     0          
Zr1      Zr     0.000000000000     0.500000000000     0.429980000000     0          
Zr2      Zr     0.911610000000     0.444060000000     0.500000000000     0          
O3       O      0.000000000000     0.442600000000     0.466300000000     0          
O4       O      0.908900000000     0.500000000000     0.465900000000     0          
C9       C      0.750000000000     0.360500000000     0.250000000000     0          
H5       H      0.750000000000     0.390400000000     0.250000000000     0          
C11      C      0.750000000000     0.274700000000     0.250000000000     0          
O1       O      0.121300000000     0.578830000000     0.442120000000     0          
O2       O      0.066200000000     0.541670000000     0.398000000000     0          
C1       C      0.108000000000     0.569100000000     0.406900000000     0          
C2       C      0.142300000000     0.591300000000     0.375860000000     0          
C3       C      0.134500000000     0.578300000000     0.337490000000     0          
H1       H      0.107300000000     0.554500000000     0.332000000000     0          
C4       C      0.163200000000     0.597600000000     0.309920000000     0          
H2       H      0.161100000000     0.585700000000     0.285000000000     0          
C5       C      0.199700000000     0.638000000000     0.315200000000     0          
C6       C      0.205600000000     0.650500000000     0.352630000000     0          
H3       H      0.229300000000     0.675600000000     0.358200000000     0          
C7       C      0.178600000000     0.628100000000     0.382060000000     0          
H4       H      0.184700000000     0.637700000000     0.407600000000     0          
C8       C      0.226200000000     0.660300000000     0.282320000000     0          
C10      C      0.228300000000     0.705200000000     0.281290000000     0          
H6       H      0.214200000000     0.720900000000     0.303000000000     0          
Zr2      Zr     0.088390000000     0.555940000000     0.500000000000     0          
O3       O      0.000000000000     0.557400000000     0.466300000000     0          
O4       O      0.091100000000     0.500000000000     0.465900000000     0          
C9       C      0.250000000000     0.639500000000     0.250000000000     0          
H5       H      0.250000000000     0.609600000000     0.250000000000     0          
C11      C      0.250000000000     0.725300000000     0.250000000000     0          
O1       O      0.121300000000     0.421170000000     0.442120000000     0          
O2       O      0.066200000000     0.458330000000     0.398000000000     0          
C1       C      0.108000000000     0.430900000000     0.406900000000     0          
C2       C      0.142300000000     0.408700000000     0.375860000000     0          
C3       C      0.134500000000     0.421700000000     0.337490000000     0          
H1       H      0.107300000000     0.445500000000     0.332000000000     0          
C4       C      0.163200000000     0.402400000000     0.309920000000     0          
H2       H      0.161100000000     0.414300000000     0.285000000000     0          
C5       C      0.199700000000     0.362000000000     0.315200000000     0          
C6       C      0.205600000000     0.349500000000     0.352630000000     0          
H3       H      0.229300000000     0.324400000000     0.358200000000     0          
C7       C      0.178600000000     0.371900000000     0.382060000000     0          
H4       H      0.184700000000     0.362300000000     0.407600000000     0          
C8       C      0.226200000000     0.339700000000     0.282320000000     0          
C10      C      0.228300000000     0.294800000000     0.281290000000     0          
H6       H      0.214200000000     0.279100000000     0.303000000000     0          
C9       C      0.250000000000     0.360500000000     0.250000000000     0          
H5       H      0.250000000000     0.390400000000     0.250000000000     0          
C11      C      0.250000000000     0.274700000000     0.250000000000     0          
O1       O      0.878700000000     0.578830000000     0.442120000000     0          
O2       O      0.933800000000     0.541670000000     0.398000000000     0          
C1       C      0.892000000000     0.569100000000     0.406900000000     0          
C2       C      0.857700000000     0.591300000000     0.375860000000     0          
C3       C      0.865500000000     0.578300000000     0.337490000000     0          
H1       H      0.892700000000     0.554500000000     0.332000000000     0          
C4       C      0.836800000000     0.597600000000     0.309920000000     0          
H2       H      0.838900000000     0.585700000000     0.285000000000     0          
C5       C      0.800300000000     0.638000000000     0.315200000000     0          
C6       C      0.794400000000     0.650500000000     0.352630000000     0          
H3       H      0.770700000000     0.675600000000     0.358200000000     0          
C7       C      0.821400000000     0.628100000000     0.382060000000     0          
H4       H      0.815300000000     0.637700000000     0.407600000000     0          
C8       C      0.773800000000     0.660300000000     0.282320000000     0          
C10      C      0.771700000000     0.705200000000     0.281290000000     0          
H6       H      0.785800000000     0.720900000000     0.303000000000     0          
C9       C      0.750000000000     0.639500000000     0.250000000000     0          
H5       H      0.750000000000     0.609600000000     0.250000000000     0          
C11      C      0.750000000000     0.725300000000     0.250000000000     0          
O1       O      0.121300000000     0.578830000000     0.557880000000     0          
O2       O      0.066200000000     0.541670000000     0.602000000000     0          
C1       C      0.108000000000     0.569100000000     0.593100000000     0          
C2       C      0.142300000000     0.591300000000     0.624140000000     0          
C3       C      0.134500000000     0.578300000000     0.662510000000     0          
H1       H      0.107300000000     0.554500000000     0.668000000000     0          
C4       C      0.163200000000     0.597600000000     0.690080000000     0          
H2       H      0.161100000000     0.585700000000     0.715000000000     0          
C5       C      0.199700000000     0.638000000000     0.684800000000     0          
C6       C      0.205600000000     0.650500000000     0.647370000000     0          
H3       H      0.229300000000     0.675600000000     0.641800000000     0          
C7       C      0.178600000000     0.628100000000     0.617940000000     0          
H4       H      0.184700000000     0.637700000000     0.592400000000     0          
C8       C      0.226200000000     0.660300000000     0.717680000000     0          
C10      C      0.228300000000     0.705200000000     0.718710000000     0          
H6       H      0.214200000000     0.720900000000     0.697000000000     0          
C9       C      0.250000000000     0.639500000000     0.750000000000     0          
H5       H      0.250000000000     0.609600000000     0.750000000000     0          
C11      C      0.250000000000     0.725300000000     0.750000000000     0          
O1       O      0.878700000000     0.421170000000     0.557880000000     0          
O2       O      0.933800000000     0.458330000000     0.602000000000     0          
C1       C      0.892000000000     0.430900000000     0.593100000000     0          
C2       C      0.857700000000     0.408700000000     0.624140000000     0          
C3       C      0.865500000000     0.421700000000     0.662510000000     0          
H1       H      0.892700000000     0.445500000000     0.668000000000     0          
C4       C      0.836800000000     0.402400000000     0.690080000000     0          
H2       H      0.838900000000     0.414300000000     0.715000000000     0          
C5       C      0.800300000000     0.362000000000     0.684800000000     0          
C6       C      0.794400000000     0.349500000000     0.647370000000     0          
H3       H      0.770700000000     0.324400000000     0.641800000000     0          
C7       C      0.821400000000     0.371900000000     0.617940000000     0          
H4       H      0.815300000000     0.362300000000     0.592400000000     0          
C8       C      0.773800000000     0.339700000000     0.717680000000     0          
C10      C      0.771700000000     0.294800000000     0.718710000000     0          
H6       H      0.785800000000     0.279100000000     0.697000000000     0          
C9       C      0.750000000000     0.360500000000     0.750000000000     0          
H5       H      0.750000000000     0.390400000000     0.750000000000     0          
C11      C      0.750000000000     0.274700000000     0.750000000000     0          
O1       O      0.378700000000     0.078830000000     0.557880000000     0          
O2       O      0.433800000000     0.041670000000     0.602000000000     0          
C1       C      0.392000000000     0.069100000000     0.593100000000     0          
C2       C      0.357700000000     0.091300000000     0.624140000000     0          
C3       C      0.365500000000     0.078300000000     0.662510000000     0          
H1       H      0.392700000000     0.054500000000     0.668000000000     0          
C4       C      0.336800000000     0.097600000000     0.690080000000     0          
H2       H      0.338900000000     0.085700000000     0.715000000000     0          
C5       C      0.300300000000     0.138000000000     0.684800000000     0          
C6       C      0.294400000000     0.150500000000     0.647370000000     0          
H3       H      0.270700000000     0.175600000000     0.641800000000     0          
C7       C      0.321400000000     0.128100000000     0.617940000000     0          
H4       H      0.315300000000     0.137700000000     0.592400000000     0          
C8       C      0.273800000000     0.160300000000     0.717680000000     0          
C10      C      0.271700000000     0.205200000000     0.718710000000     0          
H6       H      0.285800000000     0.220900000000     0.697000000000     0          
Zr1      Zr     0.500000000000     0.000000000000     0.570020000000     0          
Zr2      Zr     0.411610000000     0.055940000000     0.500000000000     0          
O3       O      0.500000000000     0.057400000000     0.533700000000     0          
O4       O      0.408900000000     0.000000000000     0.534100000000     0          
O1       O      0.621300000000     0.921170000000     0.557880000000     0          
O2       O      0.566200000000     0.958330000000     0.602000000000     0          
C1       C      0.608000000000     0.930900000000     0.593100000000     0          
C2       C      0.642300000000     0.908700000000     0.624140000000     0          
C3       C      0.634500000000     0.921700000000     0.662510000000     0          
H1       H      0.607300000000     0.945500000000     0.668000000000     0          
C4       C      0.663200000000     0.902400000000     0.690080000000     0          
H2       H      0.661100000000     0.914300000000     0.715000000000     0          
C5       C      0.699700000000     0.862000000000     0.684800000000     0          
C6       C      0.705600000000     0.849500000000     0.647370000000     0          
H3       H      0.729300000000     0.824400000000     0.641800000000     0          
C7       C      0.678600000000     0.871900000000     0.617940000000     0          
H4       H      0.684700000000     0.862300000000     0.592400000000     0          
C8       C      0.726200000000     0.839700000000     0.717680000000     0          
C10      C      0.728300000000     0.794800000000     0.718710000000     0          
H6       H      0.714200000000     0.779100000000     0.697000000000     0          
Zr2      Zr     0.588390000000     0.944060000000     0.500000000000     0          
O3       O      0.500000000000     0.942600000000     0.533700000000     0          
O4       O      0.591100000000     0.000000000000     0.534100000000     0          
O1       O      0.378700000000     0.921170000000     0.442120000000     0          
O2       O      0.433800000000     0.958330000000     0.398000000000     0          
C1       C      0.392000000000     0.930900000000     0.406900000000     0          
C2       C      0.357700000000     0.908700000000     0.375860000000     0          
C3       C      0.365500000000     0.921700000000     0.337490000000     0          
H1       H      0.392700000000     0.945500000000     0.332000000000     0          
C4       C      0.336800000000     0.902400000000     0.309920000000     0          
H2       H      0.338900000000     0.914300000000     0.285000000000     0          
C5       C      0.300300000000     0.862000000000     0.315200000000     0          
C6       C      0.294400000000     0.849500000000     0.352630000000     0          
H3       H      0.270700000000     0.824400000000     0.358200000000     0          
C7       C      0.321400000000     0.871900000000     0.382060000000     0          
H4       H      0.315300000000     0.862300000000     0.407600000000     0          
C8       C      0.273800000000     0.839700000000     0.282320000000     0          
C10      C      0.271700000000     0.794800000000     0.281290000000     0          
H6       H      0.285800000000     0.779100000000     0.303000000000     0          
Zr1      Zr     0.500000000000     0.000000000000     0.429980000000     0          
Zr2      Zr     0.411610000000     0.944060000000     0.500000000000     0          
O3       O      0.500000000000     0.942600000000     0.466300000000     0          
O4       O      0.408900000000     0.000000000000     0.465900000000     0          
O1       O      0.621300000000     0.078830000000     0.442120000000     0          
O2       O      0.566200000000     0.041670000000     0.398000000000     0          
C1       C      0.608000000000     0.069100000000     0.406900000000     0          
C2       C      0.642300000000     0.091300000000     0.375860000000     0          
C3       C      0.634500000000     0.078300000000     0.337490000000     0          
H1       H      0.607300000000     0.054500000000     0.332000000000     0          
C4       C      0.663200000000     0.097600000000     0.309920000000     0          
H2       H      0.661100000000     0.085700000000     0.285000000000     0          
C5       C      0.699700000000     0.138000000000     0.315200000000     0          
C6       C      0.705600000000     0.150500000000     0.352630000000     0          
H3       H      0.729300000000     0.175600000000     0.358200000000     0          
C7       C      0.678600000000     0.128100000000     0.382060000000     0          
H4       H      0.684700000000     0.137700000000     0.407600000000     0          
C8       C      0.726200000000     0.160300000000     0.282320000000     0          
C10      C      0.728300000000     0.205200000000     0.281290000000     0          
H6       H      0.714200000000     0.220900000000     0.303000000000     0          
Zr2      Zr     0.588390000000     0.055940000000     0.500000000000     0          
O3       O      0.500000000000     0.057400000000     0.466300000000     0          
O4       O      0.591100000000     0.000000000000     0.465900000000     0          
O1       O      0.621300000000     0.921170000000     0.442120000000     0          
O2       O      0.566200000000     0.958330000000     0.398000000000     0          
C1       C      0.608000000000     0.930900000000     0.406900000000     0          
C2       C      0.642300000000     0.908700000000     0.375860000000     0          
C3       C      0.634500000000     0.921700000000     0.337490000000     0          
H1       H      0.607300000000     0.945500000000     0.332000000000     0          
C4       C      0.663200000000     0.902400000000     0.309920000000     0          
H2       H      0.661100000000     0.914300000000     0.285000000000     0          
C5       C      0.699700000000     0.862000000000     0.315200000000     0          
C6       C      0.705600000000     0.849500000000     0.352630000000     0          
H3       H      0.729300000000     0.824400000000     0.358200000000     0          
C7       C      0.678600000000     0.871900000000     0.382060000000     0          
H4       H      0.684700000000     0.862300000000     0.407600000000     0          
C8       C      0.726200000000     0.839700000000     0.282320000000     0          
C10      C      0.728300000000     0.794800000000     0.281290000000     0          
H6       H      0.714200000000     0.779100000000     0.303000000000     0          
O1       O      0.378700000000     0.078830000000     0.442120000000     0          
O2       O      0.433800000000     0.041670000000     0.398000000000     0          
C1       C      0.392000000000     0.069100000000     0.406900000000     0          
C2       C      0.357700000000     0.091300000000     0.375860000000     0          
C3       C      0.365500000000     0.078300000000     0.337490000000     0          
H1       H      0.392700000000     0.054500000000     0.332000000000     0          
C4       C      0.336800000000     0.097600000000     0.309920000000     0          
H2       H      0.338900000000     0.085700000000     0.285000000000     0          
C5       C      0.300300000000     0.138000000000     0.315200000000     0          
C6       C      0.294400000000     0.150500000000     0.352630000000     0          
H3       H      0.270700000000     0.175600000000     0.358200000000     0          
C7       C      0.321400000000     0.128100000000     0.382060000000     0          
H4       H      0.315300000000     0.137700000000     0.407600000000     0          
C8       C      0.273800000000     0.160300000000     0.282320000000     0          
C10      C      0.271700000000     0.205200000000     0.281290000000     0          
H6       H      0.285800000000     0.220900000000     0.303000000000     0          
O1       O      0.621300000000     0.078830000000     0.557880000000     0          
O2       O      0.566200000000     0.041670000000     0.602000000000     0          
C1       C      0.608000000000     0.069100000000     0.593100000000     0          
C2       C      0.642300000000     0.091300000000     0.624140000000     0          
C3       C      0.634500000000     0.078300000000     0.662510000000     0          
H1       H      0.607300000000     0.054500000000     0.668000000000     0          
C4       C      0.663200000000     0.097600000000     0.690080000000     0          
H2       H      0.661100000000     0.085700000000     0.715000000000     0          
C5       C      0.699700000000     0.138000000000     0.684800000000     0          
C6       C      0.705600000000     0.150500000000     0.647370000000     0          
H3       H      0.729300000000     0.175600000000     0.641800000000     0          
C7       C      0.678600000000     0.128100000000     0.617940000000     0          
H4       H      0.684700000000     0.137700000000     0.592400000000     0          
C8       C      0.726200000000     0.160300000000     0.717680000000     0          
C10      C      0.728300000000     0.205200000000     0.718710000000     0          
H6       H      0.714200000000     0.220900000000     0.697000000000     0          
O1       O      0.378700000000     0.921170000000     0.557880000000     0          
O2       O      0.433800000000     0.958330000000     0.602000000000     0          
C1       C      0.392000000000     0.930900000000     0.593100000000     0          
C2       C      0.357700000000     0.908700000000     0.624140000000     0          
C3       C      0.365500000000     0.921700000000     0.662510000000     0          
H1       H      0.392700000000     0.945500000000     0.668000000000     0          
C4       C      0.336800000000     0.902400000000     0.690080000000     0          
H2       H      0.338900000000     0.914300000000     0.715000000000     0          
C5       C      0.300300000000     0.862000000000     0.684800000000     0          
C6       C      0.294400000000     0.849500000000     0.647370000000     0          
H3       H      0.270700000000     0.824400000000     0.641800000000     0          
C7       C      0.321400000000     0.871900000000     0.617940000000     0          
H4       H      0.315300000000     0.862300000000     0.592400000000     0          
C8       C      0.273800000000     0.839700000000     0.717680000000     0          
C10      C      0.271700000000     0.794800000000     0.718710000000     0          
H6       H      0.285800000000     0.779100000000     0.697000000000     0          
O1       O      0.378700000000     0.578830000000     0.057880000000     0          
O2       O      0.433800000000     0.541670000000     0.102000000000     0          
C1       C      0.392000000000     0.569100000000     0.093100000000     0          
C2       C      0.357700000000     0.591300000000     0.124140000000     0          
C3       C      0.365500000000     0.578300000000     0.162510000000     0          
H1       H      0.392700000000     0.554500000000     0.168000000000     0          
C4       C      0.336800000000     0.597600000000     0.190080000000     0          
H2       H      0.338900000000     0.585700000000     0.215000000000     0          
C5       C      0.300300000000     0.638000000000     0.184800000000     0          
C6       C      0.294400000000     0.650500000000     0.147370000000     0          
H3       H      0.270700000000     0.675600000000     0.141800000000     0          
C7       C      0.321400000000     0.628100000000     0.117940000000     0          
H4       H      0.315300000000     0.637700000000     0.092400000000     0          
C8       C      0.273800000000     0.660300000000     0.217680000000     0          
C10      C      0.271700000000     0.705200000000     0.218710000000     0          
H6       H      0.285800000000     0.720900000000     0.197000000000     0          
Zr1      Zr     0.500000000000     0.500000000000     0.070020000000     0          
Zr2      Zr     0.411610000000     0.555940000000     0.000000000000     0          
O3       O      0.500000000000     0.557400000000     0.033700000000     0          
O4       O      0.408900000000     0.500000000000     0.034100000000     0          
O1       O      0.621300000000     0.421170000000     0.057880000000     0          
O2       O      0.566200000000     0.458330000000     0.102000000000     0          
C1       C      0.608000000000     0.430900000000     0.093100000000     0          
C2       C      0.642300000000     0.408700000000     0.124140000000     0          
C3       C      0.634500000000     0.421700000000     0.162510000000     0          
H1       H      0.607300000000     0.445500000000     0.168000000000     0          
C4       C      0.663200000000     0.402400000000     0.190080000000     0          
H2       H      0.661100000000     0.414300000000     0.215000000000     0          
C5       C      0.699700000000     0.362000000000     0.184800000000     0          
C6       C      0.705600000000     0.349500000000     0.147370000000     0          
H3       H      0.729300000000     0.324400000000     0.141800000000     0          
C7       C      0.678600000000     0.371900000000     0.117940000000     0          
H4       H      0.684700000000     0.362300000000     0.092400000000     0          
C8       C      0.726200000000     0.339700000000     0.217680000000     0          
C10      C      0.728300000000     0.294800000000     0.218710000000     0          
H6       H      0.714200000000     0.279100000000     0.197000000000     0          
Zr2      Zr     0.588390000000     0.444060000000     0.000000000000     0          
O3       O      0.500000000000     0.442600000000     0.033700000000     0          
O4       O      0.591100000000     0.500000000000     0.034100000000     0          
O1       O      0.378700000000     0.421170000000     0.942120000000     0          
O2       O      0.433800000000     0.458330000000     0.898000000000     0          
C1       C      0.392000000000     0.430900000000     0.906900000000     0          
C2       C      0.357700000000     0.408700000000     0.875860000000     0          
C3       C      0.365500000000     0.421700000000     0.837490000000     0          
H1       H      0.392700000000     0.445500000000     0.832000000000     0          
C4       C      0.336800000000     0.402400000000     0.809920000000     0          
H2       H      0.338900000000     0.414300000000     0.785000000000     0          
C5       C      0.300300000000     0.362000000000     0.815200000000     0          
C6       C      0.294400000000     0.349500000000     0.852630000000     0          
H3       H      0.270700000000     0.324400000000     0.858200000000     0          
C7       C      0.321400000000     0.371900000000     0.882060000000     0          
H4       H      0.315300000000     0.362300000000     0.907600000000     0          
C8       C      0.273800000000     0.339700000000     0.782320000000     0          
C10      C      0.271700000000     0.294800000000     0.781290000000     0          
H6       H      0.285800000000     0.279100000000     0.803000000000     0          
Zr1      Zr     0.500000000000     0.500000000000     0.929980000000     0          
Zr2      Zr     0.411610000000     0.444060000000     0.000000000000     0          
O3       O      0.500000000000     0.442600000000     0.966300000000     0          
O4       O      0.408900000000     0.500000000000     0.965900000000     0          
O1       O      0.621300000000     0.578830000000     0.942120000000     0          
O2       O      0.566200000000     0.541670000000     0.898000000000     0          
C1       C      0.608000000000     0.569100000000     0.906900000000     0          
C2       C      0.642300000000     0.591300000000     0.875860000000     0          
C3       C      0.634500000000     0.578300000000     0.837490000000     0          
H1       H      0.607300000000     0.554500000000     0.832000000000     0          
C4       C      0.663200000000     0.597600000000     0.809920000000     0          
H2       H      0.661100000000     0.585700000000     0.785000000000     0          
C5       C      0.699700000000     0.638000000000     0.815200000000     0          
C6       C      0.705600000000     0.650500000000     0.852630000000     0          
H3       H      0.729300000000     0.675600000000     0.858200000000     0          
C7       C      0.678600000000     0.628100000000     0.882060000000     0          
H4       H      0.684700000000     0.637700000000     0.907600000000     0          
C8       C      0.726200000000     0.660300000000     0.782320000000     0          
C10      C      0.728300000000     0.705200000000     0.781290000000     0          
H6       H      0.714200000000     0.720900000000     0.803000000000     0          
Zr2      Zr     0.588390000000     0.555940000000     0.000000000000     0          
O3       O      0.500000000000     0.557400000000     0.966300000000     0          
O4       O      0.591100000000     0.500000000000     0.965900000000     0          
O1       O      0.621300000000     0.421170000000     0.942120000000     0          
O2       O      0.566200000000     0.458330000000     0.898000000000     0          
C1       C      0.608000000000     0.430900000000     0.906900000000     0          
C2       C      0.642300000000     0.408700000000     0.875860000000     0          
C3       C      0.634500000000     0.421700000000     0.837490000000     0          
H1       H      0.607300000000     0.445500000000     0.832000000000     0          
C4       C      0.663200000000     0.402400000000     0.809920000000     0          
H2       H      0.661100000000     0.414300000000     0.785000000000     0          
C5       C      0.699700000000     0.362000000000     0.815200000000     0          
C6       C      0.705600000000     0.349500000000     0.852630000000     0          
H3       H      0.729300000000     0.324400000000     0.858200000000     0          
C7       C      0.678600000000     0.371900000000     0.882060000000     0          
H4       H      0.684700000000     0.362300000000     0.907600000000     0          
C8       C      0.726200000000     0.339700000000     0.782320000000     0          
C10      C      0.728300000000     0.294800000000     0.781290000000     0          
H6       H      0.714200000000     0.279100000000     0.803000000000     0          
O1       O      0.378700000000     0.578830000000     0.942120000000     0          
O2       O      0.433800000000     0.541670000000     0.898000000000     0          
C1       C      0.392000000000     0.569100000000     0.906900000000     0          
C2       C      0.357700000000     0.591300000000     0.875860000000     0          
C3       C      0.365500000000     0.578300000000     0.837490000000     0          
H1       H      0.392700000000     0.554500000000     0.832000000000     0          
C4       C      0.336800000000     0.597600000000     0.809920000000     0          
H2       H      0.338900000000     0.585700000000     0.785000000000     0          
C5       C      0.300300000000     0.638000000000     0.815200000000     0          
C6       C      0.294400000000     0.650500000000     0.852630000000     0          
H3       H      0.270700000000     0.675600000000     0.858200000000     0          
C7       C      0.321400000000     0.628100000000     0.882060000000     0          
H4       H      0.315300000000     0.637700000000     0.907600000000     0          
C8       C      0.273800000000     0.660300000000     0.782320000000     0          
C10      C      0.271700000000     0.705200000000     0.781290000000     0          
H6       H      0.285800000000     0.720900000000     0.803000000000     0          
O1       O      0.621300000000     0.578830000000     0.057880000000     0          
O2       O      0.566200000000     0.541670000000     0.102000000000     0          
C1       C      0.608000000000     0.569100000000     0.093100000000     0          
C2       C      0.642300000000     0.591300000000     0.124140000000     0          
C3       C      0.634500000000     0.578300000000     0.162510000000     0          
H1       H      0.607300000000     0.554500000000     0.168000000000     0          
C4       C      0.663200000000     0.597600000000     0.190080000000     0          
H2       H      0.661100000000     0.585700000000     0.215000000000     0          
C5       C      0.699700000000     0.638000000000     0.184800000000     0          
C6       C      0.705600000000     0.650500000000     0.147370000000     0          
H3       H      0.729300000000     0.675600000000     0.141800000000     0          
C7       C      0.678600000000     0.628100000000     0.117940000000     0          
H4       H      0.684700000000     0.637700000000     0.092400000000     0          
C8       C      0.726200000000     0.660300000000     0.217680000000     0          
C10      C      0.728300000000     0.705200000000     0.218710000000     0          
H6       H      0.714200000000     0.720900000000     0.197000000000     0          
O1       O      0.378700000000     0.421170000000     0.057880000000     0          
O2       O      0.433800000000     0.458330000000     0.102000000000     0          
C1       C      0.392000000000     0.430900000000     0.093100000000     0          
C2       C      0.357700000000     0.408700000000     0.124140000000     0          
C3       C      0.365500000000     0.421700000000     0.162510000000     0          
H1       H      0.392700000000     0.445500000000     0.168000000000     0          
C4       C      0.336800000000     0.402400000000     0.190080000000     0          
H2       H      0.338900000000     0.414300000000     0.215000000000     0          
C5       C      0.300300000000     0.362000000000     0.184800000000     0          
C6       C      0.294400000000     0.349500000000     0.147370000000     0          
H3       H      0.270700000000     0.324400000000     0.141800000000     0          
C7       C      0.321400000000     0.371900000000     0.117940000000     0          
H4       H      0.315300000000     0.362300000000     0.092400000000     0          
C8       C      0.273800000000     0.339700000000     0.217680000000     0          
C10      C      0.271700000000     0.294800000000     0.218710000000     0          
H6       H      0.285800000000     0.279100000000     0.197000000000     0          


