data_HICPER

_audit_creation_method RASPA-1.0
_audit_creation_date 2020-11-2
_audit_author_name 'Rocio Bueno-Perez'

_cell_length_a    23.1544
_cell_length_b    33.1052
_cell_length_c    40.833
_cell_angle_alpha 90
_cell_angle_beta  90
_cell_angle_gamma 90
_cell_volume      31299.8

_symmetry_cell_setting          triclinic
_symmetry_space_group_name_Hall 'P 1'
_symmetry_space_group_name_H-M  'P 1'
_symmetry_Int_Tables_number     1

_symmetry_equiv_pos_as_xyz 'x,y,z'

loop_
_atom_site_label
_atom_site_type_symbol
_atom_site_fract_x
_atom_site_fract_y
_atom_site_fract_z
_atom_site_charge
O1       O      0.107200000000     0.058820000000     0.203520000000     0          
O2       O      0.441100000000     0.393220000000     0.201960000000     0          
O3       O      0.391700000000     0.440940000000     0.173980000000     0          
O4       O      0.059100000000     0.106920000000     0.231580000000     0          
O5       O      0.426000000000     0.464000000000     0.234990000000     0          
C6       C      0.095300000000     0.094700000000     0.210600000000     0          
C7       C      0.401800000000     0.405000000000     0.182100000000     0          
C8       C      0.124700000000     0.127000000000     0.190800000000     0          
C9       C      0.365000000000     0.372500000000     0.167900000000     0          
C10      C      0.368300000000     0.333400000000     0.179200000000     0          
H11      H      0.394500000000     0.327200000000     0.195700000000     0          
C12      C      0.122200000000     0.167100000000     0.200300000000     0          
H13      H      0.102600000000     0.173600000000     0.219400000000     0          
C14      C      0.152800000000     0.117600000000     0.163000000000     0          
H15      H      0.155300000000     0.090700000000     0.156500000000     0          
C16      C      0.147100000000     0.197000000000     0.183000000000     0          
H17      H      0.145600000000     0.223500000000     0.190500000000     0          
C18      C      0.326500000000     0.382100000000     0.144100000000     0          
H19      H      0.322700000000     0.408700000000     0.137100000000     0          
C20      C      0.334200000000     0.303200000000     0.166800000000     0          
H21      H      0.336900000000     0.277200000000     0.175200000000     0          
C22      C      0.175000000000     0.187800000000     0.153800000000     0          
C23      C      0.178300000000     0.147400000000     0.143500000000     0          
H24      H      0.197100000000     0.140600000000     0.124200000000     0          
C25      C      0.292100000000     0.351500000000     0.130300000000     0          
H26      H      0.266700000000     0.357500000000     0.113300000000     0          
C27      C      0.296400000000     0.311500000000     0.142200000000     0          
C28      C      0.202100000000     0.219000000000     0.133000000000     0          
C29      C      0.234900000000     0.249800000000     0.146600000000     0          
H30      H      0.239700000000     0.250700000000     0.169200000000     0          
C31      C      0.261300000000     0.279900000000     0.126900000000     0          
C32      C      0.250100000000     0.279700000000     0.093800000000     0          
H33      H      0.265100000000     0.300000000000     0.080500000000     0          
C34      C      0.194800000000     0.217400000000     0.099900000000     0          
H35      H      0.175800000000     0.195600000000     0.090500000000     0          
C36      C      0.215800000000     0.248600000000     0.079800000000     0          
C37      C      0.208700000000     0.247700000000     0.045000000000     0          
C38      C      0.207800000000     0.247100000000     0.017400000000     0          
C39      C      0.030300000000     0.466700000000     0.239100000000     0          
C40      C      0.043100000000     0.425200000000     0.247600000000     0          
O41      O      0.607200000000     0.558820000000     0.703520000000     0          
O42      O      0.941100000000     0.893220000000     0.701960000000     0          
O43      O      0.891700000000     0.940940000000     0.673980000000     0          
O44      O      0.559100000000     0.606920000000     0.731580000000     0          
O45      O      0.926000000000     0.964000000000     0.734990000000     0          
C46      C      0.595300000000     0.594700000000     0.710600000000     0          
C47      C      0.901800000000     0.905000000000     0.682100000000     0          
C48      C      0.624700000000     0.627000000000     0.690800000000     0          
C49      C      0.865000000000     0.872500000000     0.667900000000     0          
C50      C      0.868300000000     0.833400000000     0.679200000000     0          
H51      H      0.894500000000     0.827200000000     0.695700000000     0          
C52      C      0.622200000000     0.667100000000     0.700300000000     0          
H53      H      0.602600000000     0.673600000000     0.719400000000     0          
C54      C      0.652800000000     0.617600000000     0.663000000000     0          
H55      H      0.655300000000     0.590700000000     0.656500000000     0          
C56      C      0.647100000000     0.697000000000     0.683000000000     0          
H57      H      0.645600000000     0.723500000000     0.690500000000     0          
C58      C      0.826500000000     0.882100000000     0.644100000000     0          
H59      H      0.822700000000     0.908700000000     0.637100000000     0          
C60      C      0.834200000000     0.803200000000     0.666800000000     0          
H61      H      0.836900000000     0.777200000000     0.675200000000     0          
C62      C      0.675000000000     0.687800000000     0.653800000000     0          
C63      C      0.678300000000     0.647400000000     0.643500000000     0          
H64      H      0.697100000000     0.640600000000     0.624200000000     0          
C65      C      0.792100000000     0.851500000000     0.630300000000     0          
H66      H      0.766700000000     0.857500000000     0.613300000000     0          
C67      C      0.796400000000     0.811500000000     0.642200000000     0          
C68      C      0.702100000000     0.719000000000     0.633000000000     0          
C69      C      0.734900000000     0.749800000000     0.646600000000     0          
H70      H      0.739700000000     0.750700000000     0.669200000000     0          
C71      C      0.761300000000     0.779900000000     0.626900000000     0          
C72      C      0.750100000000     0.779700000000     0.593800000000     0          
H73      H      0.765100000000     0.800000000000     0.580500000000     0          
C74      C      0.694800000000     0.717400000000     0.599900000000     0          
H75      H      0.675800000000     0.695600000000     0.590500000000     0          
C76      C      0.715800000000     0.748600000000     0.579800000000     0          
C77      C      0.708700000000     0.747700000000     0.545000000000     0          
C78      C      0.707800000000     0.747100000000     0.517400000000     0          
C79      C      0.530300000000     0.966700000000     0.739100000000     0          
C80      C      0.543100000000     0.925200000000     0.747600000000     0          
O81      O      0.892800000000     0.941180000000     0.203520000000     0          
O82      O      0.558900000000     0.606780000000     0.201960000000     0          
O83      O      0.608300000000     0.559060000000     0.173980000000     0          
O84      O      0.940900000000     0.893080000000     0.231580000000     0          
O85      O      0.574000000000     0.536000000000     0.234990000000     0          
C86      C      0.904700000000     0.905300000000     0.210600000000     0          
C87      C      0.598200000000     0.595000000000     0.182100000000     0          
C88      C      0.875300000000     0.873000000000     0.190800000000     0          
C89      C      0.635000000000     0.627500000000     0.167900000000     0          
C90      C      0.631700000000     0.666600000000     0.179200000000     0          
H91      H      0.605500000000     0.672800000000     0.195700000000     0          
C92      C      0.877800000000     0.832900000000     0.200300000000     0          
H93      H      0.897400000000     0.826400000000     0.219400000000     0          
C94      C      0.847200000000     0.882400000000     0.163000000000     0          
H95      H      0.844700000000     0.909300000000     0.156500000000     0          
C96      C      0.852900000000     0.803000000000     0.183000000000     0          
H97      H      0.854400000000     0.776500000000     0.190500000000     0          
C98      C      0.673500000000     0.617900000000     0.144100000000     0          
H99      H      0.677300000000     0.591300000000     0.137100000000     0          
C100     C      0.665800000000     0.696800000000     0.166800000000     0          
H101     H      0.663100000000     0.722800000000     0.175200000000     0          
C102     C      0.825000000000     0.812200000000     0.153800000000     0          
C103     C      0.821700000000     0.852600000000     0.143500000000     0          
H104     H      0.802900000000     0.859400000000     0.124200000000     0          
C105     C      0.707900000000     0.648500000000     0.130300000000     0          
H106     H      0.733300000000     0.642500000000     0.113300000000     0          
C107     C      0.703600000000     0.688500000000     0.142200000000     0          
C108     C      0.797900000000     0.781000000000     0.133000000000     0          
C109     C      0.765100000000     0.750200000000     0.146600000000     0          
H110     H      0.760300000000     0.749300000000     0.169200000000     0          
C111     C      0.738700000000     0.720100000000     0.126900000000     0          
C112     C      0.749900000000     0.720300000000     0.093800000000     0          
H113     H      0.734900000000     0.700000000000     0.080500000000     0          
C114     C      0.805200000000     0.782600000000     0.099900000000     0          
H115     H      0.824200000000     0.804400000000     0.090500000000     0          
C116     C      0.784200000000     0.751400000000     0.079800000000     0          
C117     C      0.791300000000     0.752300000000     0.045000000000     0          
C118     C      0.792200000000     0.752900000000     0.017400000000     0          
C119     C      0.969700000000     0.533300000000     0.239100000000     0          
C120     C      0.956900000000     0.574800000000     0.247600000000     0          
O121     O      0.392800000000     0.441180000000     0.703520000000     0          
O122     O      0.058900000000     0.106780000000     0.701960000000     0          
O123     O      0.108300000000     0.059060000000     0.673980000000     0          
O124     O      0.440900000000     0.393080000000     0.731580000000     0          
O125     O      0.074000000000     0.036000000000     0.734990000000     0          
C126     C      0.404700000000     0.405300000000     0.710600000000     0          
C127     C      0.098200000000     0.095000000000     0.682100000000     0          
C128     C      0.375300000000     0.373000000000     0.690800000000     0          
C129     C      0.135000000000     0.127500000000     0.667900000000     0          
C130     C      0.131700000000     0.166600000000     0.679200000000     0          
H131     H      0.105500000000     0.172800000000     0.695700000000     0          
C132     C      0.377800000000     0.332900000000     0.700300000000     0          
H133     H      0.397400000000     0.326400000000     0.719400000000     0          
C134     C      0.347200000000     0.382400000000     0.663000000000     0          
H135     H      0.344700000000     0.409300000000     0.656500000000     0          
C136     C      0.352900000000     0.303000000000     0.683000000000     0          
H137     H      0.354400000000     0.276500000000     0.690500000000     0          
C138     C      0.173500000000     0.117900000000     0.644100000000     0          
H139     H      0.177300000000     0.091300000000     0.637100000000     0          
C140     C      0.165800000000     0.196800000000     0.666800000000     0          
H141     H      0.163100000000     0.222800000000     0.675200000000     0          
C142     C      0.325000000000     0.312200000000     0.653800000000     0          
C143     C      0.321700000000     0.352600000000     0.643500000000     0          
H144     H      0.302900000000     0.359400000000     0.624200000000     0          
C145     C      0.207900000000     0.148500000000     0.630300000000     0          
H146     H      0.233300000000     0.142500000000     0.613300000000     0          
C147     C      0.203600000000     0.188500000000     0.642200000000     0          
C148     C      0.297900000000     0.281000000000     0.633000000000     0          
C149     C      0.265100000000     0.250200000000     0.646600000000     0          
H150     H      0.260300000000     0.249300000000     0.669200000000     0          
C151     C      0.238700000000     0.220100000000     0.626900000000     0          
C152     C      0.249900000000     0.220300000000     0.593800000000     0          
H153     H      0.234900000000     0.200000000000     0.580500000000     0          
C154     C      0.305200000000     0.282600000000     0.599900000000     0          
H155     H      0.324200000000     0.304400000000     0.590500000000     0          
C156     C      0.284200000000     0.251400000000     0.579800000000     0          
C157     C      0.291300000000     0.252300000000     0.545000000000     0          
C158     C      0.292200000000     0.252900000000     0.517400000000     0          
C159     C      0.469700000000     0.033300000000     0.739100000000     0          
C160     C      0.456900000000     0.074800000000     0.747600000000     0          
O161     O      0.892800000000     0.058820000000     0.796480000000     0          
O162     O      0.558900000000     0.393220000000     0.798040000000     0          
O163     O      0.608300000000     0.440940000000     0.826020000000     0          
O164     O      0.940900000000     0.106920000000     0.768420000000     0          
O165     O      0.574000000000     0.464000000000     0.765010000000     0          
C166     C      0.904700000000     0.094700000000     0.789400000000     0          
C167     C      0.598200000000     0.405000000000     0.817900000000     0          
C168     C      0.875300000000     0.127000000000     0.809200000000     0          
C169     C      0.635000000000     0.372500000000     0.832100000000     0          
C170     C      0.631700000000     0.333400000000     0.820800000000     0          
H171     H      0.605500000000     0.327200000000     0.804300000000     0          
C172     C      0.877800000000     0.167100000000     0.799700000000     0          
H173     H      0.897400000000     0.173600000000     0.780600000000     0          
C174     C      0.847200000000     0.117600000000     0.837000000000     0          
H175     H      0.844700000000     0.090700000000     0.843500000000     0          
C176     C      0.852900000000     0.197000000000     0.817000000000     0          
H177     H      0.854400000000     0.223500000000     0.809500000000     0          
C178     C      0.673500000000     0.382100000000     0.855900000000     0          
H179     H      0.677300000000     0.408700000000     0.862900000000     0          
C180     C      0.665800000000     0.303200000000     0.833200000000     0          
H181     H      0.663100000000     0.277200000000     0.824800000000     0          
C182     C      0.825000000000     0.187800000000     0.846200000000     0          
C183     C      0.821700000000     0.147400000000     0.856500000000     0          
H184     H      0.802900000000     0.140600000000     0.875800000000     0          
C185     C      0.707900000000     0.351500000000     0.869700000000     0          
H186     H      0.733300000000     0.357500000000     0.886700000000     0          
C187     C      0.703600000000     0.311500000000     0.857800000000     0          
C188     C      0.797900000000     0.219000000000     0.867000000000     0          
C189     C      0.765100000000     0.249800000000     0.853400000000     0          
H190     H      0.760300000000     0.250700000000     0.830800000000     0          
C191     C      0.738700000000     0.279900000000     0.873100000000     0          
C192     C      0.749900000000     0.279700000000     0.906200000000     0          
H193     H      0.734900000000     0.300000000000     0.919500000000     0          
C194     C      0.805200000000     0.217400000000     0.900100000000     0          
H195     H      0.824200000000     0.195600000000     0.909500000000     0          
C196     C      0.784200000000     0.248600000000     0.920200000000     0          
C197     C      0.791300000000     0.247700000000     0.955000000000     0          
C198     C      0.792200000000     0.247100000000     0.982600000000     0          
C199     C      0.969700000000     0.466700000000     0.760900000000     0          
O200     O      0.392800000000     0.558820000000     0.296480000000     0          
O201     O      0.058900000000     0.893220000000     0.298040000000     0          
O202     O      0.108300000000     0.940940000000     0.326020000000     0          
O203     O      0.440900000000     0.606920000000     0.268420000000     0          
O204     O      0.074000000000     0.964000000000     0.265010000000     0          
C205     C      0.404700000000     0.594700000000     0.289400000000     0          
C206     C      0.098200000000     0.905000000000     0.317900000000     0          
C207     C      0.375300000000     0.627000000000     0.309200000000     0          
C208     C      0.135000000000     0.872500000000     0.332100000000     0          
C209     C      0.131700000000     0.833400000000     0.320800000000     0          
H210     H      0.105500000000     0.827200000000     0.304300000000     0          
C211     C      0.377800000000     0.667100000000     0.299700000000     0          
H212     H      0.397400000000     0.673600000000     0.280600000000     0          
C213     C      0.347200000000     0.617600000000     0.337000000000     0          
H214     H      0.344700000000     0.590700000000     0.343500000000     0          
C215     C      0.352900000000     0.697000000000     0.317000000000     0          
H216     H      0.354400000000     0.723500000000     0.309500000000     0          
C217     C      0.173500000000     0.882100000000     0.355900000000     0          
H218     H      0.177300000000     0.908700000000     0.362900000000     0          
C219     C      0.165800000000     0.803200000000     0.333200000000     0          
H220     H      0.163100000000     0.777200000000     0.324800000000     0          
C221     C      0.325000000000     0.687800000000     0.346200000000     0          
C222     C      0.321700000000     0.647400000000     0.356500000000     0          
H223     H      0.302900000000     0.640600000000     0.375800000000     0          
C224     C      0.207900000000     0.851500000000     0.369700000000     0          
H225     H      0.233300000000     0.857500000000     0.386700000000     0          
C226     C      0.203600000000     0.811500000000     0.357800000000     0          
C227     C      0.297900000000     0.719000000000     0.367000000000     0          
C228     C      0.265100000000     0.749800000000     0.353400000000     0          
H229     H      0.260300000000     0.750700000000     0.330800000000     0          
C230     C      0.238700000000     0.779900000000     0.373100000000     0          
C231     C      0.249900000000     0.779700000000     0.406200000000     0          
H232     H      0.234900000000     0.800000000000     0.419500000000     0          
C233     C      0.305200000000     0.717400000000     0.400100000000     0          
H234     H      0.324200000000     0.695600000000     0.409500000000     0          
C235     C      0.284200000000     0.748600000000     0.420200000000     0          
C236     C      0.291300000000     0.747700000000     0.455000000000     0          
C237     C      0.292200000000     0.747100000000     0.482600000000     0          
C238     C      0.469700000000     0.966700000000     0.260900000000     0          
O239     O      0.107200000000     0.941180000000     0.796480000000     0          
O240     O      0.441100000000     0.606780000000     0.798040000000     0          
O241     O      0.391700000000     0.559060000000     0.826020000000     0          
O242     O      0.059100000000     0.893080000000     0.768420000000     0          
O243     O      0.426000000000     0.536000000000     0.765010000000     0          
C244     C      0.095300000000     0.905300000000     0.789400000000     0          
C245     C      0.401800000000     0.595000000000     0.817900000000     0          
C246     C      0.124700000000     0.873000000000     0.809200000000     0          
C247     C      0.365000000000     0.627500000000     0.832100000000     0          
C248     C      0.368300000000     0.666600000000     0.820800000000     0          
H249     H      0.394500000000     0.672800000000     0.804300000000     0          
C250     C      0.122200000000     0.832900000000     0.799700000000     0          
H251     H      0.102600000000     0.826400000000     0.780600000000     0          
C252     C      0.152800000000     0.882400000000     0.837000000000     0          
H253     H      0.155300000000     0.909300000000     0.843500000000     0          
C254     C      0.147100000000     0.803000000000     0.817000000000     0          
H255     H      0.145600000000     0.776500000000     0.809500000000     0          
C256     C      0.326500000000     0.617900000000     0.855900000000     0          
H257     H      0.322700000000     0.591300000000     0.862900000000     0          
C258     C      0.334200000000     0.696800000000     0.833200000000     0          
H259     H      0.336900000000     0.722800000000     0.824800000000     0          
C260     C      0.175000000000     0.812200000000     0.846200000000     0          
C261     C      0.178300000000     0.852600000000     0.856500000000     0          
H262     H      0.197100000000     0.859400000000     0.875800000000     0          
C263     C      0.292100000000     0.648500000000     0.869700000000     0          
H264     H      0.266700000000     0.642500000000     0.886700000000     0          
C265     C      0.296400000000     0.688500000000     0.857800000000     0          
C266     C      0.202100000000     0.781000000000     0.867000000000     0          
C267     C      0.234900000000     0.750200000000     0.853400000000     0          
H268     H      0.239700000000     0.749300000000     0.830800000000     0          
C269     C      0.261300000000     0.720100000000     0.873100000000     0          
C270     C      0.250100000000     0.720300000000     0.906200000000     0          
H271     H      0.265100000000     0.700000000000     0.919500000000     0          
C272     C      0.194800000000     0.782600000000     0.900100000000     0          
H273     H      0.175800000000     0.804400000000     0.909500000000     0          
C274     C      0.215800000000     0.751400000000     0.920200000000     0          
C275     C      0.208700000000     0.752300000000     0.955000000000     0          
C276     C      0.207800000000     0.752900000000     0.982600000000     0          
C277     C      0.030300000000     0.533300000000     0.760900000000     0          
O278     O      0.607200000000     0.441180000000     0.296480000000     0          
O279     O      0.941100000000     0.106780000000     0.298040000000     0          
O280     O      0.891700000000     0.059060000000     0.326020000000     0          
O281     O      0.559100000000     0.393080000000     0.268420000000     0          
O282     O      0.926000000000     0.036000000000     0.265010000000     0          
C283     C      0.595300000000     0.405300000000     0.289400000000     0          
C284     C      0.901800000000     0.095000000000     0.317900000000     0          
C285     C      0.624700000000     0.373000000000     0.309200000000     0          
C286     C      0.865000000000     0.127500000000     0.332100000000     0          
C287     C      0.868300000000     0.166600000000     0.320800000000     0          
H288     H      0.894500000000     0.172800000000     0.304300000000     0          
C289     C      0.622200000000     0.332900000000     0.299700000000     0          
H290     H      0.602600000000     0.326400000000     0.280600000000     0          
C291     C      0.652800000000     0.382400000000     0.337000000000     0          
H292     H      0.655300000000     0.409300000000     0.343500000000     0          
C293     C      0.647100000000     0.303000000000     0.317000000000     0          
H294     H      0.645600000000     0.276500000000     0.309500000000     0          
C295     C      0.826500000000     0.117900000000     0.355900000000     0          
H296     H      0.822700000000     0.091300000000     0.362900000000     0          
C297     C      0.834200000000     0.196800000000     0.333200000000     0          
H298     H      0.836900000000     0.222800000000     0.324800000000     0          
C299     C      0.675000000000     0.312200000000     0.346200000000     0          
C300     C      0.678300000000     0.352600000000     0.356500000000     0          
H301     H      0.697100000000     0.359400000000     0.375800000000     0          
C302     C      0.792100000000     0.148500000000     0.369700000000     0          
H303     H      0.766700000000     0.142500000000     0.386700000000     0          
C304     C      0.796400000000     0.188500000000     0.357800000000     0          
C305     C      0.702100000000     0.281000000000     0.367000000000     0          
C306     C      0.734900000000     0.250200000000     0.353400000000     0          
H307     H      0.739700000000     0.249300000000     0.330800000000     0          
C308     C      0.761300000000     0.220100000000     0.373100000000     0          
C309     C      0.750100000000     0.220300000000     0.406200000000     0          
H310     H      0.765100000000     0.200000000000     0.419500000000     0          
C311     C      0.694800000000     0.282600000000     0.400100000000     0          
H312     H      0.675800000000     0.304400000000     0.409500000000     0          
C313     C      0.715800000000     0.251400000000     0.420200000000     0          
C314     C      0.708700000000     0.252300000000     0.455000000000     0          
C315     C      0.707800000000     0.252900000000     0.482600000000     0          
C316     C      0.530300000000     0.033300000000     0.260900000000     0          
O317     O      0.892800000000     0.941180000000     0.796480000000     0          
O318     O      0.558900000000     0.606780000000     0.798040000000     0          
O319     O      0.608300000000     0.559060000000     0.826020000000     0          
O320     O      0.940900000000     0.893080000000     0.768420000000     0          
O321     O      0.574000000000     0.536000000000     0.765010000000     0          
C322     C      0.904700000000     0.905300000000     0.789400000000     0          
C323     C      0.598200000000     0.595000000000     0.817900000000     0          
C324     C      0.875300000000     0.873000000000     0.809200000000     0          
C325     C      0.635000000000     0.627500000000     0.832100000000     0          
C326     C      0.631700000000     0.666600000000     0.820800000000     0          
H327     H      0.605500000000     0.672800000000     0.804300000000     0          
C328     C      0.877800000000     0.832900000000     0.799700000000     0          
H329     H      0.897400000000     0.826400000000     0.780600000000     0          
C330     C      0.847200000000     0.882400000000     0.837000000000     0          
H331     H      0.844700000000     0.909300000000     0.843500000000     0          
C332     C      0.852900000000     0.803000000000     0.817000000000     0          
H333     H      0.854400000000     0.776500000000     0.809500000000     0          
C334     C      0.673500000000     0.617900000000     0.855900000000     0          
H335     H      0.677300000000     0.591300000000     0.862900000000     0          
C336     C      0.665800000000     0.696800000000     0.833200000000     0          
H337     H      0.663100000000     0.722800000000     0.824800000000     0          
C338     C      0.825000000000     0.812200000000     0.846200000000     0          
C339     C      0.821700000000     0.852600000000     0.856500000000     0          
H340     H      0.802900000000     0.859400000000     0.875800000000     0          
C341     C      0.707900000000     0.648500000000     0.869700000000     0          
H342     H      0.733300000000     0.642500000000     0.886700000000     0          
C343     C      0.703600000000     0.688500000000     0.857800000000     0          
C344     C      0.797900000000     0.781000000000     0.867000000000     0          
C345     C      0.765100000000     0.750200000000     0.853400000000     0          
H346     H      0.760300000000     0.749300000000     0.830800000000     0          
C347     C      0.738700000000     0.720100000000     0.873100000000     0          
C348     C      0.749900000000     0.720300000000     0.906200000000     0          
H349     H      0.734900000000     0.700000000000     0.919500000000     0          
C350     C      0.805200000000     0.782600000000     0.900100000000     0          
H351     H      0.824200000000     0.804400000000     0.909500000000     0          
C352     C      0.784200000000     0.751400000000     0.920200000000     0          
C353     C      0.791300000000     0.752300000000     0.955000000000     0          
C354     C      0.792200000000     0.752900000000     0.982600000000     0          
C355     C      0.969700000000     0.533300000000     0.760900000000     0          
C356     C      0.956900000000     0.574800000000     0.752400000000     0          
O357     O      0.392800000000     0.441180000000     0.296480000000     0          
O358     O      0.058900000000     0.106780000000     0.298040000000     0          
O359     O      0.108300000000     0.059060000000     0.326020000000     0          
O360     O      0.440900000000     0.393080000000     0.268420000000     0          
O361     O      0.074000000000     0.036000000000     0.265010000000     0          
C362     C      0.404700000000     0.405300000000     0.289400000000     0          
C363     C      0.098200000000     0.095000000000     0.317900000000     0          
C364     C      0.375300000000     0.373000000000     0.309200000000     0          
C365     C      0.135000000000     0.127500000000     0.332100000000     0          
C366     C      0.131700000000     0.166600000000     0.320800000000     0          
H367     H      0.105500000000     0.172800000000     0.304300000000     0          
C368     C      0.377800000000     0.332900000000     0.299700000000     0          
H369     H      0.397400000000     0.326400000000     0.280600000000     0          
C370     C      0.347200000000     0.382400000000     0.337000000000     0          
H371     H      0.344700000000     0.409300000000     0.343500000000     0          
C372     C      0.352900000000     0.303000000000     0.317000000000     0          
H373     H      0.354400000000     0.276500000000     0.309500000000     0          
C374     C      0.173500000000     0.117900000000     0.355900000000     0          
H375     H      0.177300000000     0.091300000000     0.362900000000     0          
C376     C      0.165800000000     0.196800000000     0.333200000000     0          
H377     H      0.163100000000     0.222800000000     0.324800000000     0          
C378     C      0.325000000000     0.312200000000     0.346200000000     0          
C379     C      0.321700000000     0.352600000000     0.356500000000     0          
H380     H      0.302900000000     0.359400000000     0.375800000000     0          
C381     C      0.207900000000     0.148500000000     0.369700000000     0          
H382     H      0.233300000000     0.142500000000     0.386700000000     0          
C383     C      0.203600000000     0.188500000000     0.357800000000     0          
C384     C      0.297900000000     0.281000000000     0.367000000000     0          
C385     C      0.265100000000     0.250200000000     0.353400000000     0          
H386     H      0.260300000000     0.249300000000     0.330800000000     0          
C387     C      0.238700000000     0.220100000000     0.373100000000     0          
C388     C      0.249900000000     0.220300000000     0.406200000000     0          
H389     H      0.234900000000     0.200000000000     0.419500000000     0          
C390     C      0.305200000000     0.282600000000     0.400100000000     0          
H391     H      0.324200000000     0.304400000000     0.409500000000     0          
C392     C      0.284200000000     0.251400000000     0.420200000000     0          
C393     C      0.291300000000     0.252300000000     0.455000000000     0          
C394     C      0.292200000000     0.252900000000     0.482600000000     0          
C395     C      0.469700000000     0.033300000000     0.260900000000     0          
C396     C      0.456900000000     0.074800000000     0.252400000000     0          
O397     O      0.107200000000     0.058820000000     0.796480000000     0          
O398     O      0.441100000000     0.393220000000     0.798040000000     0          
O399     O      0.391700000000     0.440940000000     0.826020000000     0          
O400     O      0.059100000000     0.106920000000     0.768420000000     0          
O401     O      0.426000000000     0.464000000000     0.765010000000     0          
C402     C      0.095300000000     0.094700000000     0.789400000000     0          
C403     C      0.401800000000     0.405000000000     0.817900000000     0          
C404     C      0.124700000000     0.127000000000     0.809200000000     0          
C405     C      0.365000000000     0.372500000000     0.832100000000     0          
C406     C      0.368300000000     0.333400000000     0.820800000000     0          
H407     H      0.394500000000     0.327200000000     0.804300000000     0          
C408     C      0.122200000000     0.167100000000     0.799700000000     0          
H409     H      0.102600000000     0.173600000000     0.780600000000     0          
C410     C      0.152800000000     0.117600000000     0.837000000000     0          
H411     H      0.155300000000     0.090700000000     0.843500000000     0          
C412     C      0.147100000000     0.197000000000     0.817000000000     0          
H413     H      0.145600000000     0.223500000000     0.809500000000     0          
C414     C      0.326500000000     0.382100000000     0.855900000000     0          
H415     H      0.322700000000     0.408700000000     0.862900000000     0          
C416     C      0.334200000000     0.303200000000     0.833200000000     0          
H417     H      0.336900000000     0.277200000000     0.824800000000     0          
C418     C      0.175000000000     0.187800000000     0.846200000000     0          
C419     C      0.178300000000     0.147400000000     0.856500000000     0          
H420     H      0.197100000000     0.140600000000     0.875800000000     0          
C421     C      0.292100000000     0.351500000000     0.869700000000     0          
H422     H      0.266700000000     0.357500000000     0.886700000000     0          
C423     C      0.296400000000     0.311500000000     0.857800000000     0          
C424     C      0.202100000000     0.219000000000     0.867000000000     0          
C425     C      0.234900000000     0.249800000000     0.853400000000     0          
H426     H      0.239700000000     0.250700000000     0.830800000000     0          
C427     C      0.261300000000     0.279900000000     0.873100000000     0          
C428     C      0.250100000000     0.279700000000     0.906200000000     0          
H429     H      0.265100000000     0.300000000000     0.919500000000     0          
C430     C      0.194800000000     0.217400000000     0.900100000000     0          
H431     H      0.175800000000     0.195600000000     0.909500000000     0          
C432     C      0.215800000000     0.248600000000     0.920200000000     0          
C433     C      0.208700000000     0.247700000000     0.955000000000     0          
C434     C      0.207800000000     0.247100000000     0.982600000000     0          
C435     C      0.030300000000     0.466700000000     0.760900000000     0          
C436     C      0.043100000000     0.425200000000     0.752400000000     0          
O437     O      0.607200000000     0.558820000000     0.296480000000     0          
O438     O      0.941100000000     0.893220000000     0.298040000000     0          
O439     O      0.891700000000     0.940940000000     0.326020000000     0          
O440     O      0.559100000000     0.606920000000     0.268420000000     0          
O441     O      0.926000000000     0.964000000000     0.265010000000     0          
C442     C      0.595300000000     0.594700000000     0.289400000000     0          
C443     C      0.901800000000     0.905000000000     0.317900000000     0          
C444     C      0.624700000000     0.627000000000     0.309200000000     0          
C445     C      0.865000000000     0.872500000000     0.332100000000     0          
C446     C      0.868300000000     0.833400000000     0.320800000000     0          
H447     H      0.894500000000     0.827200000000     0.304300000000     0          
C448     C      0.622200000000     0.667100000000     0.299700000000     0          
H449     H      0.602600000000     0.673600000000     0.280600000000     0          
C450     C      0.652800000000     0.617600000000     0.337000000000     0          
H451     H      0.655300000000     0.590700000000     0.343500000000     0          
C452     C      0.647100000000     0.697000000000     0.317000000000     0          
H453     H      0.645600000000     0.723500000000     0.309500000000     0          
C454     C      0.826500000000     0.882100000000     0.355900000000     0          
H455     H      0.822700000000     0.908700000000     0.362900000000     0          
C456     C      0.834200000000     0.803200000000     0.333200000000     0          
H457     H      0.836900000000     0.777200000000     0.324800000000     0          
C458     C      0.675000000000     0.687800000000     0.346200000000     0          
C459     C      0.678300000000     0.647400000000     0.356500000000     0          
H460     H      0.697100000000     0.640600000000     0.375800000000     0          
C461     C      0.792100000000     0.851500000000     0.369700000000     0          
H462     H      0.766700000000     0.857500000000     0.386700000000     0          
C463     C      0.796400000000     0.811500000000     0.357800000000     0          
C464     C      0.702100000000     0.719000000000     0.367000000000     0          
C465     C      0.734900000000     0.749800000000     0.353400000000     0          
H466     H      0.739700000000     0.750700000000     0.330800000000     0          
C467     C      0.761300000000     0.779900000000     0.373100000000     0          
C468     C      0.750100000000     0.779700000000     0.406200000000     0          
H469     H      0.765100000000     0.800000000000     0.419500000000     0          
C470     C      0.694800000000     0.717400000000     0.400100000000     0          
H471     H      0.675800000000     0.695600000000     0.409500000000     0          
C472     C      0.715800000000     0.748600000000     0.420200000000     0          
C473     C      0.708700000000     0.747700000000     0.455000000000     0          
C474     C      0.707800000000     0.747100000000     0.482600000000     0          
C475     C      0.530300000000     0.966700000000     0.260900000000     0          
C476     C      0.543100000000     0.925200000000     0.252400000000     0          
O477     O      0.107200000000     0.941180000000     0.203520000000     0          
O478     O      0.441100000000     0.606780000000     0.201960000000     0          
O479     O      0.391700000000     0.559060000000     0.173980000000     0          
O480     O      0.059100000000     0.893080000000     0.231580000000     0          
O481     O      0.426000000000     0.536000000000     0.234990000000     0          
C482     C      0.095300000000     0.905300000000     0.210600000000     0          
C483     C      0.401800000000     0.595000000000     0.182100000000     0          
C484     C      0.124700000000     0.873000000000     0.190800000000     0          
C485     C      0.365000000000     0.627500000000     0.167900000000     0          
C486     C      0.368300000000     0.666600000000     0.179200000000     0          
H487     H      0.394500000000     0.672800000000     0.195700000000     0          
C488     C      0.122200000000     0.832900000000     0.200300000000     0          
H489     H      0.102600000000     0.826400000000     0.219400000000     0          
C490     C      0.152800000000     0.882400000000     0.163000000000     0          
H491     H      0.155300000000     0.909300000000     0.156500000000     0          
C492     C      0.147100000000     0.803000000000     0.183000000000     0          
H493     H      0.145600000000     0.776500000000     0.190500000000     0          
C494     C      0.326500000000     0.617900000000     0.144100000000     0          
H495     H      0.322700000000     0.591300000000     0.137100000000     0          
C496     C      0.334200000000     0.696800000000     0.166800000000     0          
H497     H      0.336900000000     0.722800000000     0.175200000000     0          
C498     C      0.175000000000     0.812200000000     0.153800000000     0          
C499     C      0.178300000000     0.852600000000     0.143500000000     0          
H500     H      0.197100000000     0.859400000000     0.124200000000     0          
C501     C      0.292100000000     0.648500000000     0.130300000000     0          
H502     H      0.266700000000     0.642500000000     0.113300000000     0          
C503     C      0.296400000000     0.688500000000     0.142200000000     0          
C504     C      0.202100000000     0.781000000000     0.133000000000     0          
C505     C      0.234900000000     0.750200000000     0.146600000000     0          
H506     H      0.239700000000     0.749300000000     0.169200000000     0          
C507     C      0.261300000000     0.720100000000     0.126900000000     0          
C508     C      0.250100000000     0.720300000000     0.093800000000     0          
H509     H      0.265100000000     0.700000000000     0.080500000000     0          
C510     C      0.194800000000     0.782600000000     0.099900000000     0          
H511     H      0.175800000000     0.804400000000     0.090500000000     0          
C512     C      0.215800000000     0.751400000000     0.079800000000     0          
C513     C      0.208700000000     0.752300000000     0.045000000000     0          
C514     C      0.207800000000     0.752900000000     0.017400000000     0          
C515     C      0.030300000000     0.533300000000     0.239100000000     0          
O516     O      0.607200000000     0.441180000000     0.703520000000     0          
O517     O      0.941100000000     0.106780000000     0.701960000000     0          
O518     O      0.891700000000     0.059060000000     0.673980000000     0          
O519     O      0.559100000000     0.393080000000     0.731580000000     0          
O520     O      0.926000000000     0.036000000000     0.734990000000     0          
C521     C      0.595300000000     0.405300000000     0.710600000000     0          
C522     C      0.901800000000     0.095000000000     0.682100000000     0          
C523     C      0.624700000000     0.373000000000     0.690800000000     0          
C524     C      0.865000000000     0.127500000000     0.667900000000     0          
C525     C      0.868300000000     0.166600000000     0.679200000000     0          
H526     H      0.894500000000     0.172800000000     0.695700000000     0          
C527     C      0.622200000000     0.332900000000     0.700300000000     0          
H528     H      0.602600000000     0.326400000000     0.719400000000     0          
C529     C      0.652800000000     0.382400000000     0.663000000000     0          
H530     H      0.655300000000     0.409300000000     0.656500000000     0          
C531     C      0.647100000000     0.303000000000     0.683000000000     0          
H532     H      0.645600000000     0.276500000000     0.690500000000     0          
C533     C      0.826500000000     0.117900000000     0.644100000000     0          
H534     H      0.822700000000     0.091300000000     0.637100000000     0          
C535     C      0.834200000000     0.196800000000     0.666800000000     0          
H536     H      0.836900000000     0.222800000000     0.675200000000     0          
C537     C      0.675000000000     0.312200000000     0.653800000000     0          
C538     C      0.678300000000     0.352600000000     0.643500000000     0          
H539     H      0.697100000000     0.359400000000     0.624200000000     0          
C540     C      0.792100000000     0.148500000000     0.630300000000     0          
H541     H      0.766700000000     0.142500000000     0.613300000000     0          
C542     C      0.796400000000     0.188500000000     0.642200000000     0          
C543     C      0.702100000000     0.281000000000     0.633000000000     0          
C544     C      0.734900000000     0.250200000000     0.646600000000     0          
H545     H      0.739700000000     0.249300000000     0.669200000000     0          
C546     C      0.761300000000     0.220100000000     0.626900000000     0          
C547     C      0.750100000000     0.220300000000     0.593800000000     0          
H548     H      0.765100000000     0.200000000000     0.580500000000     0          
C549     C      0.694800000000     0.282600000000     0.599900000000     0          
H550     H      0.675800000000     0.304400000000     0.590500000000     0          
C551     C      0.715800000000     0.251400000000     0.579800000000     0          
C552     C      0.708700000000     0.252300000000     0.545000000000     0          
C553     C      0.707800000000     0.252900000000     0.517400000000     0          
C554     C      0.530300000000     0.033300000000     0.739100000000     0          
O555     O      0.892800000000     0.058820000000     0.203520000000     0          
O556     O      0.558900000000     0.393220000000     0.201960000000     0          
O557     O      0.608300000000     0.440940000000     0.173980000000     0          
O558     O      0.940900000000     0.106920000000     0.231580000000     0          
O559     O      0.574000000000     0.464000000000     0.234990000000     0          
C560     C      0.904700000000     0.094700000000     0.210600000000     0          
C561     C      0.598200000000     0.405000000000     0.182100000000     0          
C562     C      0.875300000000     0.127000000000     0.190800000000     0          
C563     C      0.635000000000     0.372500000000     0.167900000000     0          
C564     C      0.631700000000     0.333400000000     0.179200000000     0          
H565     H      0.605500000000     0.327200000000     0.195700000000     0          
C566     C      0.877800000000     0.167100000000     0.200300000000     0          
H567     H      0.897400000000     0.173600000000     0.219400000000     0          
C568     C      0.847200000000     0.117600000000     0.163000000000     0          
H569     H      0.844700000000     0.090700000000     0.156500000000     0          
C570     C      0.852900000000     0.197000000000     0.183000000000     0          
H571     H      0.854400000000     0.223500000000     0.190500000000     0          
C572     C      0.673500000000     0.382100000000     0.144100000000     0          
H573     H      0.677300000000     0.408700000000     0.137100000000     0          
C574     C      0.665800000000     0.303200000000     0.166800000000     0          
H575     H      0.663100000000     0.277200000000     0.175200000000     0          
C576     C      0.825000000000     0.187800000000     0.153800000000     0          
C577     C      0.821700000000     0.147400000000     0.143500000000     0          
H578     H      0.802900000000     0.140600000000     0.124200000000     0          
C579     C      0.707900000000     0.351500000000     0.130300000000     0          
H580     H      0.733300000000     0.357500000000     0.113300000000     0          
C581     C      0.703600000000     0.311500000000     0.142200000000     0          
C582     C      0.797900000000     0.219000000000     0.133000000000     0          
C583     C      0.765100000000     0.249800000000     0.146600000000     0          
H584     H      0.760300000000     0.250700000000     0.169200000000     0          
C585     C      0.738700000000     0.279900000000     0.126900000000     0          
C586     C      0.749900000000     0.279700000000     0.093800000000     0          
H587     H      0.734900000000     0.300000000000     0.080500000000     0          
C588     C      0.805200000000     0.217400000000     0.099900000000     0          
H589     H      0.824200000000     0.195600000000     0.090500000000     0          
C590     C      0.784200000000     0.248600000000     0.079800000000     0          
C591     C      0.791300000000     0.247700000000     0.045000000000     0          
C592     C      0.792200000000     0.247100000000     0.017400000000     0          
C593     C      0.969700000000     0.466700000000     0.239100000000     0          
O594     O      0.392800000000     0.558820000000     0.703520000000     0          
O595     O      0.058900000000     0.893220000000     0.701960000000     0          
O596     O      0.108300000000     0.940940000000     0.673980000000     0          
O597     O      0.440900000000     0.606920000000     0.731580000000     0          
O598     O      0.074000000000     0.964000000000     0.734990000000     0          
C599     C      0.404700000000     0.594700000000     0.710600000000     0          
C600     C      0.098200000000     0.905000000000     0.682100000000     0          
C601     C      0.375300000000     0.627000000000     0.690800000000     0          
C602     C      0.135000000000     0.872500000000     0.667900000000     0          
C603     C      0.131700000000     0.833400000000     0.679200000000     0          
H604     H      0.105500000000     0.827200000000     0.695700000000     0          
C605     C      0.377800000000     0.667100000000     0.700300000000     0          
H606     H      0.397400000000     0.673600000000     0.719400000000     0          
C607     C      0.347200000000     0.617600000000     0.663000000000     0          
H608     H      0.344700000000     0.590700000000     0.656500000000     0          
C609     C      0.352900000000     0.697000000000     0.683000000000     0          
H610     H      0.354400000000     0.723500000000     0.690500000000     0          
C611     C      0.173500000000     0.882100000000     0.644100000000     0          
H612     H      0.177300000000     0.908700000000     0.637100000000     0          
C613     C      0.165800000000     0.803200000000     0.666800000000     0          
H614     H      0.163100000000     0.777200000000     0.675200000000     0          
C615     C      0.325000000000     0.687800000000     0.653800000000     0          
C616     C      0.321700000000     0.647400000000     0.643500000000     0          
H617     H      0.302900000000     0.640600000000     0.624200000000     0          
C618     C      0.207900000000     0.851500000000     0.630300000000     0          
H619     H      0.233300000000     0.857500000000     0.613300000000     0          
C620     C      0.203600000000     0.811500000000     0.642200000000     0          
C621     C      0.297900000000     0.719000000000     0.633000000000     0          
C622     C      0.265100000000     0.749800000000     0.646600000000     0          
H623     H      0.260300000000     0.750700000000     0.669200000000     0          
C624     C      0.238700000000     0.779900000000     0.626900000000     0          
C625     C      0.249900000000     0.779700000000     0.593800000000     0          
H626     H      0.234900000000     0.800000000000     0.580500000000     0          
C627     C      0.305200000000     0.717400000000     0.599900000000     0          
H628     H      0.324200000000     0.695600000000     0.590500000000     0          
C629     C      0.284200000000     0.748600000000     0.579800000000     0          
C630     C      0.291300000000     0.747700000000     0.545000000000     0          
C631     C      0.292200000000     0.747100000000     0.517400000000     0          
C632     C      0.469700000000     0.966700000000     0.739100000000     0          
Zr633    Zr     0.424930000000     0.500000000000     0.278100000000     0          
Zr634    Zr     0.424350000000     0.500000000000     0.191880000000     0          
O635     O      0.333200000000     0.500000000000     0.262910000000     0          
O636     O      0.332700000000     0.500000000000     0.207400000000     0          
O637     O      0.451400000000     0.500000000000     0.330630000000     0          
O638     O      0.445100000000     0.500000000000     0.138640000000     0          
C639     C      0.308800000000     0.500000000000     0.235200000000     0          
C640     C      0.549200000000     0.500000000000     0.399100000000     0          
H641     H      0.583900000000     0.500000000000     0.387600000000     0          
C642     C      0.551300000000     0.500000000000     0.432200000000     0          
H643     H      0.586700000000     0.500000000000     0.443000000000     0          
C644     C      0.245400000000     0.500000000000     0.235500000000     0          
C645     C      0.215200000000     0.500000000000     0.264400000000     0          
H646     H      0.234900000000     0.500000000000     0.284300000000     0          
C647     C      0.155100000000     0.500000000000     0.264200000000     0          
H648     H      0.135400000000     0.500000000000     0.284000000000     0          
C649     C      0.214600000000     0.500000000000     0.206200000000     0          
H650     H      0.234100000000     0.500000000000     0.186300000000     0          
C651     C      0.124100000000     0.500000000000     0.235400000000     0          
C652     C      0.448800000000     0.500000000000     0.069300000000     0          
H653     H      0.413800000000     0.500000000000     0.080500000000     0          
C654     C      0.449200000000     0.500000000000     0.034800000000     0          
H655     H      0.414400000000     0.500000000000     0.023300000000     0          
C656     C      0.061500000000     0.500000000000     0.233600000000     0          
C657     C      0.154600000000     0.500000000000     0.206900000000     0          
H658     H      0.134600000000     0.500000000000     0.187200000000     0          
Zr659    Zr     0.924930000000     0.000000000000     0.778100000000     0          
Zr660    Zr     0.924350000000     0.000000000000     0.691880000000     0          
O661     O      0.833200000000     0.000000000000     0.762910000000     0          
O662     O      0.832700000000     0.000000000000     0.707400000000     0          
O663     O      0.951400000000     0.000000000000     0.830630000000     0          
O664     O      0.945100000000     0.000000000000     0.638640000000     0          
C665     C      0.808800000000     0.000000000000     0.735200000000     0          
C666     C      0.049200000000     0.000000000000     0.899100000000     0          
H667     H      0.083900000000     0.000000000000     0.887600000000     0          
C668     C      0.051300000000     0.000000000000     0.932200000000     0          
H669     H      0.086700000000     0.000000000000     0.943000000000     0          
C670     C      0.745400000000     0.000000000000     0.735500000000     0          
C671     C      0.715200000000     0.000000000000     0.764400000000     0          
H672     H      0.734900000000     0.000000000000     0.784300000000     0          
C673     C      0.655100000000     0.000000000000     0.764200000000     0          
H674     H      0.635400000000     0.000000000000     0.784000000000     0          
C675     C      0.714600000000     0.000000000000     0.706200000000     0          
H676     H      0.734100000000     0.000000000000     0.686300000000     0          
C677     C      0.624100000000     0.000000000000     0.735400000000     0          
C678     C      0.948800000000     0.000000000000     0.569300000000     0          
H679     H      0.913800000000     0.000000000000     0.580500000000     0          
C680     C      0.949200000000     0.000000000000     0.534800000000     0          
H681     H      0.914400000000     0.000000000000     0.523300000000     0          
C682     C      0.561500000000     0.000000000000     0.733600000000     0          
C683     C      0.654600000000     0.000000000000     0.706900000000     0          
H684     H      0.634600000000     0.000000000000     0.687200000000     0          
Zr685    Zr     0.575070000000     0.500000000000     0.278100000000     0          
Zr686    Zr     0.575650000000     0.500000000000     0.191880000000     0          
O687     O      0.666800000000     0.500000000000     0.262910000000     0          
O688     O      0.667300000000     0.500000000000     0.207400000000     0          
O689     O      0.548600000000     0.500000000000     0.330630000000     0          
O690     O      0.554900000000     0.500000000000     0.138640000000     0          
C691     C      0.691200000000     0.500000000000     0.235200000000     0          
C692     C      0.450800000000     0.500000000000     0.399100000000     0          
H693     H      0.416100000000     0.500000000000     0.387600000000     0          
C694     C      0.448700000000     0.500000000000     0.432200000000     0          
H695     H      0.413300000000     0.500000000000     0.443000000000     0          
C696     C      0.754600000000     0.500000000000     0.235500000000     0          
C697     C      0.784800000000     0.500000000000     0.264400000000     0          
H698     H      0.765100000000     0.500000000000     0.284300000000     0          
C699     C      0.844900000000     0.500000000000     0.264200000000     0          
H700     H      0.864600000000     0.500000000000     0.284000000000     0          
C701     C      0.785400000000     0.500000000000     0.206200000000     0          
H702     H      0.765900000000     0.500000000000     0.186300000000     0          
C703     C      0.875900000000     0.500000000000     0.235400000000     0          
C704     C      0.551200000000     0.500000000000     0.069300000000     0          
H705     H      0.586200000000     0.500000000000     0.080500000000     0          
C706     C      0.550800000000     0.500000000000     0.034800000000     0          
H707     H      0.585600000000     0.500000000000     0.023300000000     0          
C708     C      0.938500000000     0.500000000000     0.233600000000     0          
C709     C      0.845400000000     0.500000000000     0.206900000000     0          
H710     H      0.865400000000     0.500000000000     0.187200000000     0          
Zr711    Zr     0.075070000000     0.000000000000     0.778100000000     0          
Zr712    Zr     0.075650000000     0.000000000000     0.691880000000     0          
O713     O      0.166800000000     0.000000000000     0.762910000000     0          
O714     O      0.167300000000     0.000000000000     0.707400000000     0          
O715     O      0.048600000000     0.000000000000     0.830630000000     0          
O716     O      0.054900000000     0.000000000000     0.638640000000     0          
C717     C      0.191200000000     0.000000000000     0.735200000000     0          
C718     C      0.950800000000     0.000000000000     0.899100000000     0          
H719     H      0.916100000000     0.000000000000     0.887600000000     0          
C720     C      0.948700000000     0.000000000000     0.932200000000     0          
H721     H      0.913300000000     0.000000000000     0.943000000000     0          
C722     C      0.254600000000     0.000000000000     0.735500000000     0          
C723     C      0.284800000000     0.000000000000     0.764400000000     0          
H724     H      0.265100000000     0.000000000000     0.784300000000     0          
C725     C      0.344900000000     0.000000000000     0.764200000000     0          
H726     H      0.364600000000     0.000000000000     0.784000000000     0          
C727     C      0.285400000000     0.000000000000     0.706200000000     0          
H728     H      0.265900000000     0.000000000000     0.686300000000     0          
C729     C      0.375900000000     0.000000000000     0.735400000000     0          
C730     C      0.051200000000     0.000000000000     0.569300000000     0          
H731     H      0.086200000000     0.000000000000     0.580500000000     0          
C732     C      0.050800000000     0.000000000000     0.534800000000     0          
H733     H      0.085600000000     0.000000000000     0.523300000000     0          
C734     C      0.438500000000     0.000000000000     0.733600000000     0          
C735     C      0.345400000000     0.000000000000     0.706900000000     0          
H736     H      0.365400000000     0.000000000000     0.687200000000     0          
Zr737    Zr     0.575070000000     0.500000000000     0.721900000000     0          
Zr738    Zr     0.575650000000     0.500000000000     0.808120000000     0          
O739     O      0.666800000000     0.500000000000     0.737090000000     0          
O740     O      0.667300000000     0.500000000000     0.792600000000     0          
O741     O      0.548600000000     0.500000000000     0.669370000000     0          
O742     O      0.554900000000     0.500000000000     0.861360000000     0          
C743     C      0.691200000000     0.500000000000     0.764800000000     0          
C744     C      0.450800000000     0.500000000000     0.600900000000     0          
H745     H      0.416100000000     0.500000000000     0.612400000000     0          
C746     C      0.448700000000     0.500000000000     0.567800000000     0          
H747     H      0.413300000000     0.500000000000     0.557000000000     0          
C748     C      0.754600000000     0.500000000000     0.764500000000     0          
C749     C      0.784800000000     0.500000000000     0.735600000000     0          
H750     H      0.765100000000     0.500000000000     0.715700000000     0          
C751     C      0.844900000000     0.500000000000     0.735800000000     0          
H752     H      0.864600000000     0.500000000000     0.716000000000     0          
C753     C      0.785400000000     0.500000000000     0.793800000000     0          
H754     H      0.765900000000     0.500000000000     0.813700000000     0          
C755     C      0.875900000000     0.500000000000     0.764600000000     0          
C756     C      0.551200000000     0.500000000000     0.930700000000     0          
H757     H      0.586200000000     0.500000000000     0.919500000000     0          
C758     C      0.550800000000     0.500000000000     0.965200000000     0          
H759     H      0.585600000000     0.500000000000     0.976700000000     0          
C760     C      0.938500000000     0.500000000000     0.766400000000     0          
C761     C      0.845400000000     0.500000000000     0.793100000000     0          
H762     H      0.865400000000     0.500000000000     0.812800000000     0          
Zr763    Zr     0.075070000000     0.000000000000     0.221900000000     0          
Zr764    Zr     0.075650000000     0.000000000000     0.308120000000     0          
O765     O      0.166800000000     0.000000000000     0.237090000000     0          
O766     O      0.167300000000     0.000000000000     0.292600000000     0          
O767     O      0.048600000000     0.000000000000     0.169370000000     0          
O768     O      0.054900000000     0.000000000000     0.361360000000     0          
C769     C      0.191200000000     0.000000000000     0.264800000000     0          
C770     C      0.950800000000     0.000000000000     0.100900000000     0          
H771     H      0.916100000000     0.000000000000     0.112400000000     0          
C772     C      0.948700000000     0.000000000000     0.067800000000     0          
H773     H      0.913300000000     0.000000000000     0.057000000000     0          
C774     C      0.254600000000     0.000000000000     0.264500000000     0          
C775     C      0.284800000000     0.000000000000     0.235600000000     0          
H776     H      0.265100000000     0.000000000000     0.215700000000     0          
C777     C      0.344900000000     0.000000000000     0.235800000000     0          
H778     H      0.364600000000     0.000000000000     0.216000000000     0          
C779     C      0.285400000000     0.000000000000     0.293800000000     0          
H780     H      0.265900000000     0.000000000000     0.313700000000     0          
C781     C      0.375900000000     0.000000000000     0.264600000000     0          
C782     C      0.051200000000     0.000000000000     0.430700000000     0          
H783     H      0.086200000000     0.000000000000     0.419500000000     0          
C784     C      0.050800000000     0.000000000000     0.465200000000     0          
H785     H      0.085600000000     0.000000000000     0.476700000000     0          
C786     C      0.438500000000     0.000000000000     0.266400000000     0          
C787     C      0.345400000000     0.000000000000     0.293100000000     0          
H788     H      0.365400000000     0.000000000000     0.312800000000     0          
Zr789    Zr     0.424930000000     0.500000000000     0.721900000000     0          
Zr790    Zr     0.424350000000     0.500000000000     0.808120000000     0          
O791     O      0.333200000000     0.500000000000     0.737090000000     0          
O792     O      0.332700000000     0.500000000000     0.792600000000     0          
O793     O      0.451400000000     0.500000000000     0.669370000000     0          
O794     O      0.445100000000     0.500000000000     0.861360000000     0          
C795     C      0.308800000000     0.500000000000     0.764800000000     0          
C796     C      0.549200000000     0.500000000000     0.600900000000     0          
H797     H      0.583900000000     0.500000000000     0.612400000000     0          
C798     C      0.551300000000     0.500000000000     0.567800000000     0          
H799     H      0.586700000000     0.500000000000     0.557000000000     0          
C800     C      0.245400000000     0.500000000000     0.764500000000     0          
C801     C      0.215200000000     0.500000000000     0.735600000000     0          
H802     H      0.234900000000     0.500000000000     0.715700000000     0          
C803     C      0.155100000000     0.500000000000     0.735800000000     0          
H804     H      0.135400000000     0.500000000000     0.716000000000     0          
C805     C      0.214600000000     0.500000000000     0.793800000000     0          
H806     H      0.234100000000     0.500000000000     0.813700000000     0          
C807     C      0.124100000000     0.500000000000     0.764600000000     0          
C808     C      0.448800000000     0.500000000000     0.930700000000     0          
H809     H      0.413800000000     0.500000000000     0.919500000000     0          
C810     C      0.449200000000     0.500000000000     0.965200000000     0          
H811     H      0.414400000000     0.500000000000     0.976700000000     0          
C812     C      0.061500000000     0.500000000000     0.766400000000     0          
C813     C      0.154600000000     0.500000000000     0.793100000000     0          
H814     H      0.134600000000     0.500000000000     0.812800000000     0          
Zr815    Zr     0.924930000000     0.000000000000     0.221900000000     0          
Zr816    Zr     0.924350000000     0.000000000000     0.308120000000     0          
O817     O      0.833200000000     0.000000000000     0.237090000000     0          
O818     O      0.832700000000     0.000000000000     0.292600000000     0          
O819     O      0.951400000000     0.000000000000     0.169370000000     0          
O820     O      0.945100000000     0.000000000000     0.361360000000     0          
C821     C      0.808800000000     0.000000000000     0.264800000000     0          
C822     C      0.049200000000     0.000000000000     0.100900000000     0          
H823     H      0.083900000000     0.000000000000     0.112400000000     0          
C824     C      0.051300000000     0.000000000000     0.067800000000     0          
H825     H      0.086700000000     0.000000000000     0.057000000000     0          
C826     C      0.745400000000     0.000000000000     0.264500000000     0          
C827     C      0.715200000000     0.000000000000     0.235600000000     0          
H828     H      0.734900000000     0.000000000000     0.215700000000     0          
C829     C      0.655100000000     0.000000000000     0.235800000000     0          
H830     H      0.635400000000     0.000000000000     0.216000000000     0          
C831     C      0.714600000000     0.000000000000     0.293800000000     0          
H832     H      0.734100000000     0.000000000000     0.313700000000     0          
C833     C      0.624100000000     0.000000000000     0.264600000000     0          
C834     C      0.948800000000     0.000000000000     0.430700000000     0          
H835     H      0.913800000000     0.000000000000     0.419500000000     0          
C836     C      0.949200000000     0.000000000000     0.465200000000     0          
H837     H      0.914400000000     0.000000000000     0.476700000000     0          
C838     C      0.561500000000     0.000000000000     0.266400000000     0          
C839     C      0.654600000000     0.000000000000     0.293100000000     0          
H840     H      0.634600000000     0.000000000000     0.312800000000     0          
Zr841    Zr     0.500000000000     0.425710000000     0.234880000000     0          
O842     O      0.500000000000     0.462600000000     0.278000000000     0          
O843     O      0.500000000000     0.536500000000     0.192200000000     0          
Zr844    Zr     0.000000000000     0.925710000000     0.734880000000     0          
O845     O      0.000000000000     0.962600000000     0.778000000000     0          
O846     O      0.000000000000     0.036500000000     0.692200000000     0          
Zr847    Zr     0.500000000000     0.574290000000     0.234880000000     0          
O848     O      0.500000000000     0.537400000000     0.278000000000     0          
O849     O      0.500000000000     0.463500000000     0.192200000000     0          
Zr850    Zr     0.000000000000     0.074290000000     0.734880000000     0          
O851     O      0.000000000000     0.037400000000     0.778000000000     0          
O852     O      0.000000000000     0.963500000000     0.692200000000     0          
Zr853    Zr     0.500000000000     0.425710000000     0.765120000000     0          
O854     O      0.500000000000     0.462600000000     0.722000000000     0          
O855     O      0.500000000000     0.536500000000     0.807800000000     0          
Zr856    Zr     0.000000000000     0.925710000000     0.265120000000     0          
O857     O      0.000000000000     0.962600000000     0.222000000000     0          
O858     O      0.000000000000     0.036500000000     0.307800000000     0          
Zr859    Zr     0.500000000000     0.574290000000     0.765120000000     0          
O860     O      0.500000000000     0.537400000000     0.722000000000     0          
O861     O      0.500000000000     0.463500000000     0.807800000000     0          
Zr862    Zr     0.000000000000     0.074290000000     0.265120000000     0          
O863     O      0.000000000000     0.037400000000     0.222000000000     0          
O864     O      0.000000000000     0.963500000000     0.307800000000     0          
C865     C      0.500000000000     0.500000000000     0.344500000000     0          
C866     C      0.500000000000     0.500000000000     0.382000000000     0          
C867     C      0.500000000000     0.500000000000     0.123200000000     0          
C868     C      0.500000000000     0.500000000000     0.449900000000     0          
C869     C      0.500000000000     0.500000000000     0.086700000000     0          
C870     C      0.500000000000     0.500000000000     0.484900000000     0          
C871     C      0.500000000000     0.500000000000     0.018100000000     0          
C872     C      0.000000000000     0.000000000000     0.844500000000     0          
C873     C      0.000000000000     0.000000000000     0.882000000000     0          
C874     C      0.000000000000     0.000000000000     0.623200000000     0          
C875     C      0.000000000000     0.000000000000     0.949900000000     0          
C876     C      0.000000000000     0.000000000000     0.586700000000     0          
C877     C      0.000000000000     0.000000000000     0.984900000000     0          
C878     C      0.000000000000     0.000000000000     0.518100000000     0          
C879     C      0.500000000000     0.500000000000     0.655500000000     0          
C880     C      0.500000000000     0.500000000000     0.618000000000     0          
C881     C      0.500000000000     0.500000000000     0.876800000000     0          
C882     C      0.500000000000     0.500000000000     0.550100000000     0          
C883     C      0.500000000000     0.500000000000     0.913300000000     0          
C884     C      0.500000000000     0.500000000000     0.515100000000     0          
C885     C      0.500000000000     0.500000000000     0.981900000000     0          
C886     C      0.000000000000     0.000000000000     0.155500000000     0          
C887     C      0.000000000000     0.000000000000     0.118000000000     0          
C888     C      0.000000000000     0.000000000000     0.376800000000     0          
C889     C      0.000000000000     0.000000000000     0.050100000000     0          
C890     C      0.000000000000     0.000000000000     0.413300000000     0          
C891     C      0.000000000000     0.000000000000     0.015100000000     0          
C892     C      0.000000000000     0.000000000000     0.481900000000     0          
H893     H      0.926220000000     0.575460000000     0.269430000000     0          
H894     H      0.935760000000     0.590490000000     0.225830000000     0          
H895     H      0.998640000000     0.591130000000     0.254240000000     0          
H896     H      0.947120000000     0.436710000000     0.755950000000     0          
H897     H      0.919280000000     0.586060000000     0.767930000000     0          
H898     H      0.944820000000     0.576650000000     0.725380000000     0          
H899     H      0.996520000000     0.594370000000     0.757200000000     0          
H900     H      0.947120000000     0.436710000000     0.244050000000     0          
H901     H      0.037740000000     0.405270000000     0.225040000000     0          
H902     H      0.012200000000     0.414670000000     0.267590000000     0          
H903     H      0.089440000000     0.422980000000     0.256870000000     0          
H904     H      0.052880000000     0.563290000000     0.755950000000     0          
H905     H      0.028680000000     0.419100000000     0.726170000000     0          
H906     H      0.019140000000     0.404080000000     0.769770000000     0          
H907     H      0.091560000000     0.419740000000     0.754570000000     0          
H908     H      0.052880000000     0.563290000000     0.244050000000     0          
H909     H      0.537740000000     0.905270000000     0.725040000000     0          
H910     H      0.512200000000     0.914670000000     0.767590000000     0          
H911     H      0.589440000000     0.922980000000     0.756870000000     0          
H912     H      0.447120000000     0.936710000000     0.255950000000     0          
H913     H      0.528680000000     0.919100000000     0.226170000000     0          
H914     H      0.519140000000     0.904080000000     0.269770000000     0          
H915     H      0.591560000000     0.919740000000     0.254570000000     0          
H916     H      0.447120000000     0.936710000000     0.744050000000     0          
H917     H      0.426220000000     0.075460000000     0.769430000000     0          
H918     H      0.435760000000     0.090490000000     0.725830000000     0          
H919     H      0.498640000000     0.091130000000     0.754240000000     0          
H920     H      0.552880000000     0.063290000000     0.255950000000     0          
H921     H      0.419280000000     0.086060000000     0.267930000000     0          
H922     H      0.444820000000     0.076650000000     0.225380000000     0          
H923     H      0.496520000000     0.094370000000     0.257200000000     0          
H924     H      0.552880000000     0.063290000000     0.744050000000     0          


