data_HICPAN

_audit_creation_method RASPA-1.0
_audit_creation_date 2020-11-2
_audit_author_name 'Rocio Bueno-Perez'

_cell_length_a    23.2664
_cell_length_b    32.9221
_cell_length_c    41.4807
_cell_angle_alpha 90
_cell_angle_beta  90
_cell_angle_gamma 90
_cell_volume      31773.3

_symmetry_cell_setting          triclinic
_symmetry_space_group_name_Hall 'P 1'
_symmetry_space_group_name_H-M  'P 1'
_symmetry_Int_Tables_number     1

_symmetry_equiv_pos_as_xyz 'x,y,z'

loop_
_atom_site_label
_atom_site_type_symbol
_atom_site_fract_x
_atom_site_fract_y
_atom_site_fract_z
_atom_site_charge
O1       O      0.559220000000     0.607820000000     0.302380000000     0          
O2       O      0.940940000000     0.891330000000     0.263540000000     0          
O3       O      0.607860000000     0.559720000000     0.330190000000     0          
O4       O      0.891850000000     0.940350000000     0.290620000000     0          
O5       O      0.426200000000     0.463130000000     0.269490000000     0          
C6       C      0.597700000000     0.595900000000     0.321880000000     0          
C7       C      0.635600000000     0.628170000000     0.336160000000     0          
C8       C      0.906000000000     0.903610000000     0.284690000000     0          
C9       C      0.877300000000     0.871890000000     0.305490000000     0          
C10      C      0.633600000000     0.667360000000     0.324090000000     0          
H11      H      0.608200000000     0.673600000000     0.307500000000     0          
C12      C      0.673400000000     0.619100000000     0.360530000000     0          
H13      H      0.675100000000     0.592800000000     0.368600000000     0          
C14      C      0.709000000000     0.649000000000     0.373360000000     0          
H15      H      0.734300000000     0.642700000000     0.390000000000     0          
C16      C      0.881400000000     0.830730000000     0.297400000000     0          
H17      H      0.900800000000     0.822900000000     0.278800000000     0          
C18      C      0.850000000000     0.883200000000     0.333740000000     0          
H19      H      0.847700000000     0.910500000000     0.339500000000     0          
C20      C      0.669100000000     0.697300000000     0.336370000000     0          
H21      H      0.667500000000     0.723400000000     0.327900000000     0          
C22      C      0.856600000000     0.801700000000     0.317020000000     0          
H23      H      0.858300000000     0.774400000000     0.311200000000     0          
C24      C      0.706600000000     0.688900000000     0.360950000000     0          
C25      C      0.829200000000     0.812900000000     0.345510000000     0          
C26      C      0.803400000000     0.781600000000     0.367250000000     0          
C27      C      0.825900000000     0.853600000000     0.353560000000     0          
H28      H      0.807300000000     0.861300000000     0.372400000000     0          
C29      C      0.812600000000     0.783700000000     0.399990000000     0          
H30      H      0.835100000000     0.804500000000     0.408400000000     0          
C31      C      0.770100000000     0.750200000000     0.354670000000     0          
H32      H      0.764800000000     0.748500000000     0.332500000000     0          
C33      C      0.788300000000     0.754700000000     0.420990000000     0          
C34      C      0.744400000000     0.721100000000     0.374640000000     0          
C35      C      0.030200000000     0.465600000000     0.268700000000     0          
C36      C      0.796200000000     0.756400000000     0.454690000000     0          
C37      C      0.754100000000     0.723300000000     0.407530000000     0          
H38      H      0.737800000000     0.703800000000     0.421000000000     0          
C39      C      0.801100000000     0.756100000000     0.483600000000     0          
C40      C      0.049800000000     0.423700000000     0.265900000000     0          
H41      H      0.033700000000     0.406700000000     0.282500000000     0          
H42      H      0.033700000000     0.416300000000     0.245400000000     0          
H43      H      0.090700000000     0.420200000000     0.265400000000     0          
O44      O      0.059220000000     0.107820000000     0.802380000000     0          
O45      O      0.440940000000     0.391330000000     0.763540000000     0          
O46      O      0.107860000000     0.059720000000     0.830190000000     0          
O47      O      0.391850000000     0.440350000000     0.790620000000     0          
O48      O      0.926200000000     0.963130000000     0.769490000000     0          
C49      C      0.097700000000     0.095900000000     0.821880000000     0          
C50      C      0.135600000000     0.128170000000     0.836160000000     0          
C51      C      0.406000000000     0.403610000000     0.784690000000     0          
C52      C      0.377300000000     0.371890000000     0.805490000000     0          
C53      C      0.133600000000     0.167360000000     0.824090000000     0          
H54      H      0.108200000000     0.173600000000     0.807500000000     0          
C55      C      0.173400000000     0.119100000000     0.860530000000     0          
H56      H      0.175100000000     0.092800000000     0.868600000000     0          
C57      C      0.209000000000     0.149000000000     0.873360000000     0          
H58      H      0.234300000000     0.142700000000     0.890000000000     0          
C59      C      0.381400000000     0.330730000000     0.797400000000     0          
H60      H      0.400800000000     0.322900000000     0.778800000000     0          
C61      C      0.350000000000     0.383200000000     0.833740000000     0          
H62      H      0.347700000000     0.410500000000     0.839500000000     0          
C63      C      0.169100000000     0.197300000000     0.836370000000     0          
H64      H      0.167500000000     0.223400000000     0.827900000000     0          
C65      C      0.356600000000     0.301700000000     0.817020000000     0          
H66      H      0.358300000000     0.274400000000     0.811200000000     0          
C67      C      0.206600000000     0.188900000000     0.860950000000     0          
C68      C      0.329200000000     0.312900000000     0.845510000000     0          
C69      C      0.303400000000     0.281600000000     0.867250000000     0          
C70      C      0.325900000000     0.353600000000     0.853560000000     0          
H71      H      0.307300000000     0.361300000000     0.872400000000     0          
C72      C      0.312600000000     0.283700000000     0.899990000000     0          
H73      H      0.335100000000     0.304500000000     0.908400000000     0          
C74      C      0.270100000000     0.250200000000     0.854670000000     0          
H75      H      0.264800000000     0.248500000000     0.832500000000     0          
C76      C      0.288300000000     0.254700000000     0.920990000000     0          
C77      C      0.244400000000     0.221100000000     0.874640000000     0          
C78      C      0.530200000000     0.965600000000     0.768700000000     0          
C79      C      0.296200000000     0.256400000000     0.954690000000     0          
C80      C      0.254100000000     0.223300000000     0.907530000000     0          
H81      H      0.237800000000     0.203800000000     0.921000000000     0          
C82      C      0.301100000000     0.256100000000     0.983600000000     0          
C83      C      0.549800000000     0.923700000000     0.765900000000     0          
H84      H      0.533700000000     0.906700000000     0.782500000000     0          
H85      H      0.533700000000     0.916300000000     0.745400000000     0          
H86      H      0.590700000000     0.920200000000     0.765400000000     0          
O87      O      0.440780000000     0.392180000000     0.302380000000     0          
O88      O      0.059060000000     0.108670000000     0.263540000000     0          
O89      O      0.392140000000     0.440280000000     0.330190000000     0          
O90      O      0.108150000000     0.059650000000     0.290620000000     0          
O91      O      0.573800000000     0.536870000000     0.269490000000     0          
C92      C      0.402300000000     0.404100000000     0.321880000000     0          
C93      C      0.364400000000     0.371830000000     0.336160000000     0          
C94      C      0.094000000000     0.096390000000     0.284690000000     0          
C95      C      0.122700000000     0.128110000000     0.305490000000     0          
C96      C      0.366400000000     0.332640000000     0.324090000000     0          
H97      H      0.391800000000     0.326400000000     0.307500000000     0          
C98      C      0.326600000000     0.380900000000     0.360530000000     0          
H99      H      0.324900000000     0.407200000000     0.368600000000     0          
C100     C      0.291000000000     0.351000000000     0.373360000000     0          
H101     H      0.265700000000     0.357300000000     0.390000000000     0          
C102     C      0.118600000000     0.169270000000     0.297400000000     0          
H103     H      0.099200000000     0.177100000000     0.278800000000     0          
C104     C      0.150000000000     0.116800000000     0.333740000000     0          
H105     H      0.152300000000     0.089500000000     0.339500000000     0          
C106     C      0.330900000000     0.302700000000     0.336370000000     0          
H107     H      0.332500000000     0.276600000000     0.327900000000     0          
C108     C      0.143400000000     0.198300000000     0.317020000000     0          
H109     H      0.141700000000     0.225600000000     0.311200000000     0          
C110     C      0.293400000000     0.311100000000     0.360950000000     0          
C111     C      0.170800000000     0.187100000000     0.345510000000     0          
C112     C      0.196600000000     0.218400000000     0.367250000000     0          
C113     C      0.174100000000     0.146400000000     0.353560000000     0          
H114     H      0.192700000000     0.138700000000     0.372400000000     0          
C115     C      0.187400000000     0.216300000000     0.399990000000     0          
H116     H      0.164900000000     0.195500000000     0.408400000000     0          
C117     C      0.229900000000     0.249800000000     0.354670000000     0          
H118     H      0.235200000000     0.251500000000     0.332500000000     0          
C119     C      0.211700000000     0.245300000000     0.420990000000     0          
C120     C      0.255600000000     0.278900000000     0.374640000000     0          
C121     C      0.969800000000     0.534400000000     0.268700000000     0          
C122     C      0.203800000000     0.243600000000     0.454690000000     0          
C123     C      0.245900000000     0.276700000000     0.407530000000     0          
H124     H      0.262200000000     0.296200000000     0.421000000000     0          
C125     C      0.198900000000     0.243900000000     0.483600000000     0          
C126     C      0.950200000000     0.576300000000     0.265900000000     0          
H127     H      0.966300000000     0.593300000000     0.282500000000     0          
H128     H      0.966300000000     0.583700000000     0.245400000000     0          
H129     H      0.909300000000     0.579800000000     0.265400000000     0          
O130     O      0.940780000000     0.892180000000     0.802380000000     0          
O131     O      0.559060000000     0.608670000000     0.763540000000     0          
O132     O      0.892140000000     0.940280000000     0.830190000000     0          
O133     O      0.608150000000     0.559650000000     0.790620000000     0          
O134     O      0.073800000000     0.036870000000     0.769490000000     0          
C135     C      0.902300000000     0.904100000000     0.821880000000     0          
C136     C      0.864400000000     0.871830000000     0.836160000000     0          
C137     C      0.594000000000     0.596390000000     0.784690000000     0          
C138     C      0.622700000000     0.628110000000     0.805490000000     0          
C139     C      0.866400000000     0.832640000000     0.824090000000     0          
H140     H      0.891800000000     0.826400000000     0.807500000000     0          
C141     C      0.826600000000     0.880900000000     0.860530000000     0          
H142     H      0.824900000000     0.907200000000     0.868600000000     0          
C143     C      0.791000000000     0.851000000000     0.873360000000     0          
H144     H      0.765700000000     0.857300000000     0.890000000000     0          
C145     C      0.618600000000     0.669270000000     0.797400000000     0          
H146     H      0.599200000000     0.677100000000     0.778800000000     0          
C147     C      0.650000000000     0.616800000000     0.833740000000     0          
H148     H      0.652300000000     0.589500000000     0.839500000000     0          
C149     C      0.830900000000     0.802700000000     0.836370000000     0          
H150     H      0.832500000000     0.776600000000     0.827900000000     0          
C151     C      0.643400000000     0.698300000000     0.817020000000     0          
H152     H      0.641700000000     0.725600000000     0.811200000000     0          
C153     C      0.793400000000     0.811100000000     0.860950000000     0          
C154     C      0.670800000000     0.687100000000     0.845510000000     0          
C155     C      0.696600000000     0.718400000000     0.867250000000     0          
C156     C      0.674100000000     0.646400000000     0.853560000000     0          
H157     H      0.692700000000     0.638700000000     0.872400000000     0          
C158     C      0.687400000000     0.716300000000     0.899990000000     0          
H159     H      0.664900000000     0.695500000000     0.908400000000     0          
C160     C      0.729900000000     0.749800000000     0.854670000000     0          
H161     H      0.735200000000     0.751500000000     0.832500000000     0          
C162     C      0.711700000000     0.745300000000     0.920990000000     0          
C163     C      0.755600000000     0.778900000000     0.874640000000     0          
C164     C      0.469800000000     0.034400000000     0.768700000000     0          
C165     C      0.703800000000     0.743600000000     0.954690000000     0          
C166     C      0.745900000000     0.776700000000     0.907530000000     0          
H167     H      0.762200000000     0.796200000000     0.921000000000     0          
C168     C      0.698900000000     0.743900000000     0.983600000000     0          
C169     C      0.450200000000     0.076300000000     0.765900000000     0          
H170     H      0.466300000000     0.093300000000     0.782500000000     0          
H171     H      0.466300000000     0.083700000000     0.745400000000     0          
H172     H      0.409300000000     0.079800000000     0.765400000000     0          
O173     O      0.440780000000     0.607820000000     0.697620000000     0          
O174     O      0.059060000000     0.891330000000     0.736460000000     0          
O175     O      0.392140000000     0.559720000000     0.669810000000     0          
O176     O      0.108150000000     0.940350000000     0.709380000000     0          
O177     O      0.573800000000     0.463130000000     0.730510000000     0          
C178     C      0.402300000000     0.595900000000     0.678120000000     0          
C179     C      0.364400000000     0.628170000000     0.663840000000     0          
C180     C      0.094000000000     0.903610000000     0.715310000000     0          
C181     C      0.122700000000     0.871890000000     0.694510000000     0          
C182     C      0.366400000000     0.667360000000     0.675910000000     0          
H183     H      0.391800000000     0.673600000000     0.692500000000     0          
C184     C      0.326600000000     0.619100000000     0.639470000000     0          
H185     H      0.324900000000     0.592800000000     0.631400000000     0          
C186     C      0.291000000000     0.649000000000     0.626640000000     0          
H187     H      0.265700000000     0.642700000000     0.610000000000     0          
C188     C      0.118600000000     0.830730000000     0.702600000000     0          
H189     H      0.099200000000     0.822900000000     0.721200000000     0          
C190     C      0.150000000000     0.883200000000     0.666260000000     0          
H191     H      0.152300000000     0.910500000000     0.660500000000     0          
C192     C      0.330900000000     0.697300000000     0.663630000000     0          
H193     H      0.332500000000     0.723400000000     0.672100000000     0          
C194     C      0.143400000000     0.801700000000     0.682980000000     0          
H195     H      0.141700000000     0.774400000000     0.688800000000     0          
C196     C      0.293400000000     0.688900000000     0.639050000000     0          
C197     C      0.170800000000     0.812900000000     0.654490000000     0          
C198     C      0.196600000000     0.781600000000     0.632750000000     0          
C199     C      0.174100000000     0.853600000000     0.646440000000     0          
H200     H      0.192700000000     0.861300000000     0.627600000000     0          
C201     C      0.187400000000     0.783700000000     0.600010000000     0          
H202     H      0.164900000000     0.804500000000     0.591600000000     0          
C203     C      0.229900000000     0.750200000000     0.645330000000     0          
H204     H      0.235200000000     0.748500000000     0.667500000000     0          
C205     C      0.211700000000     0.754700000000     0.579010000000     0          
C206     C      0.255600000000     0.721100000000     0.625360000000     0          
C207     C      0.969800000000     0.465600000000     0.731300000000     0          
C208     C      0.203800000000     0.756400000000     0.545310000000     0          
C209     C      0.245900000000     0.723300000000     0.592470000000     0          
H210     H      0.262200000000     0.703800000000     0.579000000000     0          
C211     C      0.198900000000     0.756100000000     0.516400000000     0          
O212     O      0.940780000000     0.107820000000     0.197620000000     0          
O213     O      0.559060000000     0.391330000000     0.236460000000     0          
O214     O      0.892140000000     0.059720000000     0.169810000000     0          
O215     O      0.608150000000     0.440350000000     0.209380000000     0          
O216     O      0.073800000000     0.963130000000     0.230510000000     0          
C217     C      0.902300000000     0.095900000000     0.178120000000     0          
C218     C      0.864400000000     0.128170000000     0.163840000000     0          
C219     C      0.594000000000     0.403610000000     0.215310000000     0          
C220     C      0.622700000000     0.371890000000     0.194510000000     0          
C221     C      0.866400000000     0.167360000000     0.175910000000     0          
H222     H      0.891800000000     0.173600000000     0.192500000000     0          
C223     C      0.826600000000     0.119100000000     0.139470000000     0          
H224     H      0.824900000000     0.092800000000     0.131400000000     0          
C225     C      0.791000000000     0.149000000000     0.126640000000     0          
H226     H      0.765700000000     0.142700000000     0.110000000000     0          
C227     C      0.618600000000     0.330730000000     0.202600000000     0          
H228     H      0.599200000000     0.322900000000     0.221200000000     0          
C229     C      0.650000000000     0.383200000000     0.166260000000     0          
H230     H      0.652300000000     0.410500000000     0.160500000000     0          
C231     C      0.830900000000     0.197300000000     0.163630000000     0          
H232     H      0.832500000000     0.223400000000     0.172100000000     0          
C233     C      0.643400000000     0.301700000000     0.182980000000     0          
H234     H      0.641700000000     0.274400000000     0.188800000000     0          
C235     C      0.793400000000     0.188900000000     0.139050000000     0          
C236     C      0.670800000000     0.312900000000     0.154490000000     0          
C237     C      0.696600000000     0.281600000000     0.132750000000     0          
C238     C      0.674100000000     0.353600000000     0.146440000000     0          
H239     H      0.692700000000     0.361300000000     0.127600000000     0          
C240     C      0.687400000000     0.283700000000     0.100010000000     0          
H241     H      0.664900000000     0.304500000000     0.091600000000     0          
C242     C      0.729900000000     0.250200000000     0.145330000000     0          
H243     H      0.735200000000     0.248500000000     0.167500000000     0          
C244     C      0.711700000000     0.254700000000     0.079010000000     0          
C245     C      0.755600000000     0.221100000000     0.125360000000     0          
C246     C      0.469800000000     0.965600000000     0.231300000000     0          
C247     C      0.703800000000     0.256400000000     0.045310000000     0          
C248     C      0.745900000000     0.223300000000     0.092470000000     0          
H249     H      0.762200000000     0.203800000000     0.079000000000     0          
C250     C      0.698900000000     0.256100000000     0.016400000000     0          
O251     O      0.559220000000     0.392180000000     0.697620000000     0          
O252     O      0.940940000000     0.108670000000     0.736460000000     0          
O253     O      0.607860000000     0.440280000000     0.669810000000     0          
O254     O      0.891850000000     0.059650000000     0.709380000000     0          
O255     O      0.426200000000     0.536870000000     0.730510000000     0          
C256     C      0.597700000000     0.404100000000     0.678120000000     0          
C257     C      0.635600000000     0.371830000000     0.663840000000     0          
C258     C      0.906000000000     0.096390000000     0.715310000000     0          
C259     C      0.877300000000     0.128110000000     0.694510000000     0          
C260     C      0.633600000000     0.332640000000     0.675910000000     0          
H261     H      0.608200000000     0.326400000000     0.692500000000     0          
C262     C      0.673400000000     0.380900000000     0.639470000000     0          
H263     H      0.675100000000     0.407200000000     0.631400000000     0          
C264     C      0.709000000000     0.351000000000     0.626640000000     0          
H265     H      0.734300000000     0.357300000000     0.610000000000     0          
C266     C      0.881400000000     0.169270000000     0.702600000000     0          
H267     H      0.900800000000     0.177100000000     0.721200000000     0          
C268     C      0.850000000000     0.116800000000     0.666260000000     0          
H269     H      0.847700000000     0.089500000000     0.660500000000     0          
C270     C      0.669100000000     0.302700000000     0.663630000000     0          
H271     H      0.667500000000     0.276600000000     0.672100000000     0          
C272     C      0.856600000000     0.198300000000     0.682980000000     0          
H273     H      0.858300000000     0.225600000000     0.688800000000     0          
C274     C      0.706600000000     0.311100000000     0.639050000000     0          
C275     C      0.829200000000     0.187100000000     0.654490000000     0          
C276     C      0.803400000000     0.218400000000     0.632750000000     0          
C277     C      0.825900000000     0.146400000000     0.646440000000     0          
H278     H      0.807300000000     0.138700000000     0.627600000000     0          
C279     C      0.812600000000     0.216300000000     0.600010000000     0          
H280     H      0.835100000000     0.195500000000     0.591600000000     0          
C281     C      0.770100000000     0.249800000000     0.645330000000     0          
H282     H      0.764800000000     0.251500000000     0.667500000000     0          
C283     C      0.788300000000     0.245300000000     0.579010000000     0          
C284     C      0.744400000000     0.278900000000     0.625360000000     0          
C285     C      0.030200000000     0.534400000000     0.731300000000     0          
C286     C      0.796200000000     0.243600000000     0.545310000000     0          
C287     C      0.754100000000     0.276700000000     0.592470000000     0          
H288     H      0.737800000000     0.296200000000     0.579000000000     0          
C289     C      0.801100000000     0.243900000000     0.516400000000     0          
O290     O      0.059220000000     0.892180000000     0.197620000000     0          
O291     O      0.440940000000     0.608670000000     0.236460000000     0          
O292     O      0.107860000000     0.940280000000     0.169810000000     0          
O293     O      0.391850000000     0.559650000000     0.209380000000     0          
O294     O      0.926200000000     0.036870000000     0.230510000000     0          
C295     C      0.097700000000     0.904100000000     0.178120000000     0          
C296     C      0.135600000000     0.871830000000     0.163840000000     0          
C297     C      0.406000000000     0.596390000000     0.215310000000     0          
C298     C      0.377300000000     0.628110000000     0.194510000000     0          
C299     C      0.133600000000     0.832640000000     0.175910000000     0          
H300     H      0.108200000000     0.826400000000     0.192500000000     0          
C301     C      0.173400000000     0.880900000000     0.139470000000     0          
H302     H      0.175100000000     0.907200000000     0.131400000000     0          
C303     C      0.209000000000     0.851000000000     0.126640000000     0          
H304     H      0.234300000000     0.857300000000     0.110000000000     0          
C305     C      0.381400000000     0.669270000000     0.202600000000     0          
H306     H      0.400800000000     0.677100000000     0.221200000000     0          
C307     C      0.350000000000     0.616800000000     0.166260000000     0          
H308     H      0.347700000000     0.589500000000     0.160500000000     0          
C309     C      0.169100000000     0.802700000000     0.163630000000     0          
H310     H      0.167500000000     0.776600000000     0.172100000000     0          
C311     C      0.356600000000     0.698300000000     0.182980000000     0          
H312     H      0.358300000000     0.725600000000     0.188800000000     0          
C313     C      0.206600000000     0.811100000000     0.139050000000     0          
C314     C      0.329200000000     0.687100000000     0.154490000000     0          
C315     C      0.303400000000     0.718400000000     0.132750000000     0          
C316     C      0.325900000000     0.646400000000     0.146440000000     0          
H317     H      0.307300000000     0.638700000000     0.127600000000     0          
C318     C      0.312600000000     0.716300000000     0.100010000000     0          
H319     H      0.335100000000     0.695500000000     0.091600000000     0          
C320     C      0.270100000000     0.749800000000     0.145330000000     0          
H321     H      0.264800000000     0.751500000000     0.167500000000     0          
C322     C      0.288300000000     0.745300000000     0.079010000000     0          
C323     C      0.244400000000     0.778900000000     0.125360000000     0          
C324     C      0.530200000000     0.034400000000     0.231300000000     0          
C325     C      0.296200000000     0.743600000000     0.045310000000     0          
C326     C      0.254100000000     0.776700000000     0.092470000000     0          
H327     H      0.237800000000     0.796200000000     0.079000000000     0          
C328     C      0.301100000000     0.743900000000     0.016400000000     0          
O329     O      0.440780000000     0.392180000000     0.697620000000     0          
O330     O      0.059060000000     0.108670000000     0.736460000000     0          
O331     O      0.392140000000     0.440280000000     0.669810000000     0          
O332     O      0.108150000000     0.059650000000     0.709380000000     0          
O333     O      0.573800000000     0.536870000000     0.730510000000     0          
C334     C      0.402300000000     0.404100000000     0.678120000000     0          
C335     C      0.364400000000     0.371830000000     0.663840000000     0          
C336     C      0.094000000000     0.096390000000     0.715310000000     0          
C337     C      0.122700000000     0.128110000000     0.694510000000     0          
C338     C      0.366400000000     0.332640000000     0.675910000000     0          
H339     H      0.391800000000     0.326400000000     0.692500000000     0          
C340     C      0.326600000000     0.380900000000     0.639470000000     0          
H341     H      0.324900000000     0.407200000000     0.631400000000     0          
C342     C      0.291000000000     0.351000000000     0.626640000000     0          
H343     H      0.265700000000     0.357300000000     0.610000000000     0          
C344     C      0.118600000000     0.169270000000     0.702600000000     0          
H345     H      0.099200000000     0.177100000000     0.721200000000     0          
C346     C      0.150000000000     0.116800000000     0.666260000000     0          
H347     H      0.152300000000     0.089500000000     0.660500000000     0          
C348     C      0.330900000000     0.302700000000     0.663630000000     0          
H349     H      0.332500000000     0.276600000000     0.672100000000     0          
C350     C      0.143400000000     0.198300000000     0.682980000000     0          
H351     H      0.141700000000     0.225600000000     0.688800000000     0          
C352     C      0.293400000000     0.311100000000     0.639050000000     0          
C353     C      0.170800000000     0.187100000000     0.654490000000     0          
C354     C      0.196600000000     0.218400000000     0.632750000000     0          
C355     C      0.174100000000     0.146400000000     0.646440000000     0          
H356     H      0.192700000000     0.138700000000     0.627600000000     0          
C357     C      0.187400000000     0.216300000000     0.600010000000     0          
H358     H      0.164900000000     0.195500000000     0.591600000000     0          
C359     C      0.229900000000     0.249800000000     0.645330000000     0          
H360     H      0.235200000000     0.251500000000     0.667500000000     0          
C361     C      0.211700000000     0.245300000000     0.579010000000     0          
C362     C      0.255600000000     0.278900000000     0.625360000000     0          
C363     C      0.969800000000     0.534400000000     0.731300000000     0          
C364     C      0.203800000000     0.243600000000     0.545310000000     0          
C365     C      0.245900000000     0.276700000000     0.592470000000     0          
H366     H      0.262200000000     0.296200000000     0.579000000000     0          
C367     C      0.198900000000     0.243900000000     0.516400000000     0          
C368     C      0.950200000000     0.576300000000     0.734100000000     0          
H369     H      0.966300000000     0.593300000000     0.717500000000     0          
H370     H      0.966300000000     0.583700000000     0.754600000000     0          
H371     H      0.909300000000     0.579800000000     0.734600000000     0          
O372     O      0.940780000000     0.892180000000     0.197620000000     0          
O373     O      0.559060000000     0.608670000000     0.236460000000     0          
O374     O      0.892140000000     0.940280000000     0.169810000000     0          
O375     O      0.608150000000     0.559650000000     0.209380000000     0          
O376     O      0.073800000000     0.036870000000     0.230510000000     0          
C377     C      0.902300000000     0.904100000000     0.178120000000     0          
C378     C      0.864400000000     0.871830000000     0.163840000000     0          
C379     C      0.594000000000     0.596390000000     0.215310000000     0          
C380     C      0.622700000000     0.628110000000     0.194510000000     0          
C381     C      0.866400000000     0.832640000000     0.175910000000     0          
H382     H      0.891800000000     0.826400000000     0.192500000000     0          
C383     C      0.826600000000     0.880900000000     0.139470000000     0          
H384     H      0.824900000000     0.907200000000     0.131400000000     0          
C385     C      0.791000000000     0.851000000000     0.126640000000     0          
H386     H      0.765700000000     0.857300000000     0.110000000000     0          
C387     C      0.618600000000     0.669270000000     0.202600000000     0          
H388     H      0.599200000000     0.677100000000     0.221200000000     0          
C389     C      0.650000000000     0.616800000000     0.166260000000     0          
H390     H      0.652300000000     0.589500000000     0.160500000000     0          
C391     C      0.830900000000     0.802700000000     0.163630000000     0          
H392     H      0.832500000000     0.776600000000     0.172100000000     0          
C393     C      0.643400000000     0.698300000000     0.182980000000     0          
H394     H      0.641700000000     0.725600000000     0.188800000000     0          
C395     C      0.793400000000     0.811100000000     0.139050000000     0          
C396     C      0.670800000000     0.687100000000     0.154490000000     0          
C397     C      0.696600000000     0.718400000000     0.132750000000     0          
C398     C      0.674100000000     0.646400000000     0.146440000000     0          
H399     H      0.692700000000     0.638700000000     0.127600000000     0          
C400     C      0.687400000000     0.716300000000     0.100010000000     0          
H401     H      0.664900000000     0.695500000000     0.091600000000     0          
C402     C      0.729900000000     0.749800000000     0.145330000000     0          
H403     H      0.735200000000     0.751500000000     0.167500000000     0          
C404     C      0.711700000000     0.745300000000     0.079010000000     0          
C405     C      0.755600000000     0.778900000000     0.125360000000     0          
C406     C      0.469800000000     0.034400000000     0.231300000000     0          
C407     C      0.703800000000     0.743600000000     0.045310000000     0          
C408     C      0.745900000000     0.776700000000     0.092470000000     0          
H409     H      0.762200000000     0.796200000000     0.079000000000     0          
C410     C      0.698900000000     0.743900000000     0.016400000000     0          
C411     C      0.450200000000     0.076300000000     0.234100000000     0          
H412     H      0.466300000000     0.093300000000     0.217500000000     0          
H413     H      0.466300000000     0.083700000000     0.254600000000     0          
H414     H      0.409300000000     0.079800000000     0.234600000000     0          
O415     O      0.559220000000     0.607820000000     0.697620000000     0          
O416     O      0.940940000000     0.891330000000     0.736460000000     0          
O417     O      0.607860000000     0.559720000000     0.669810000000     0          
O418     O      0.891850000000     0.940350000000     0.709380000000     0          
O419     O      0.426200000000     0.463130000000     0.730510000000     0          
C420     C      0.597700000000     0.595900000000     0.678120000000     0          
C421     C      0.635600000000     0.628170000000     0.663840000000     0          
C422     C      0.906000000000     0.903610000000     0.715310000000     0          
C423     C      0.877300000000     0.871890000000     0.694510000000     0          
C424     C      0.633600000000     0.667360000000     0.675910000000     0          
H425     H      0.608200000000     0.673600000000     0.692500000000     0          
C426     C      0.673400000000     0.619100000000     0.639470000000     0          
H427     H      0.675100000000     0.592800000000     0.631400000000     0          
C428     C      0.709000000000     0.649000000000     0.626640000000     0          
H429     H      0.734300000000     0.642700000000     0.610000000000     0          
C430     C      0.881400000000     0.830730000000     0.702600000000     0          
H431     H      0.900800000000     0.822900000000     0.721200000000     0          
C432     C      0.850000000000     0.883200000000     0.666260000000     0          
H433     H      0.847700000000     0.910500000000     0.660500000000     0          
C434     C      0.669100000000     0.697300000000     0.663630000000     0          
H435     H      0.667500000000     0.723400000000     0.672100000000     0          
C436     C      0.856600000000     0.801700000000     0.682980000000     0          
H437     H      0.858300000000     0.774400000000     0.688800000000     0          
C438     C      0.706600000000     0.688900000000     0.639050000000     0          
C439     C      0.829200000000     0.812900000000     0.654490000000     0          
C440     C      0.803400000000     0.781600000000     0.632750000000     0          
C441     C      0.825900000000     0.853600000000     0.646440000000     0          
H442     H      0.807300000000     0.861300000000     0.627600000000     0          
C443     C      0.812600000000     0.783700000000     0.600010000000     0          
H444     H      0.835100000000     0.804500000000     0.591600000000     0          
C445     C      0.770100000000     0.750200000000     0.645330000000     0          
H446     H      0.764800000000     0.748500000000     0.667500000000     0          
C447     C      0.788300000000     0.754700000000     0.579010000000     0          
C448     C      0.744400000000     0.721100000000     0.625360000000     0          
C449     C      0.030200000000     0.465600000000     0.731300000000     0          
C450     C      0.796200000000     0.756400000000     0.545310000000     0          
C451     C      0.754100000000     0.723300000000     0.592470000000     0          
H452     H      0.737800000000     0.703800000000     0.579000000000     0          
C453     C      0.801100000000     0.756100000000     0.516400000000     0          
C454     C      0.049800000000     0.423700000000     0.734100000000     0          
H455     H      0.033700000000     0.406700000000     0.717500000000     0          
H456     H      0.033700000000     0.416300000000     0.754600000000     0          
H457     H      0.090700000000     0.420200000000     0.734600000000     0          
O458     O      0.059220000000     0.107820000000     0.197620000000     0          
O459     O      0.440940000000     0.391330000000     0.236460000000     0          
O460     O      0.107860000000     0.059720000000     0.169810000000     0          
O461     O      0.391850000000     0.440350000000     0.209380000000     0          
O462     O      0.926200000000     0.963130000000     0.230510000000     0          
C463     C      0.097700000000     0.095900000000     0.178120000000     0          
C464     C      0.135600000000     0.128170000000     0.163840000000     0          
C465     C      0.406000000000     0.403610000000     0.215310000000     0          
C466     C      0.377300000000     0.371890000000     0.194510000000     0          
C467     C      0.133600000000     0.167360000000     0.175910000000     0          
H468     H      0.108200000000     0.173600000000     0.192500000000     0          
C469     C      0.173400000000     0.119100000000     0.139470000000     0          
H470     H      0.175100000000     0.092800000000     0.131400000000     0          
C471     C      0.209000000000     0.149000000000     0.126640000000     0          
H472     H      0.234300000000     0.142700000000     0.110000000000     0          
C473     C      0.381400000000     0.330730000000     0.202600000000     0          
H474     H      0.400800000000     0.322900000000     0.221200000000     0          
C475     C      0.350000000000     0.383200000000     0.166260000000     0          
H476     H      0.347700000000     0.410500000000     0.160500000000     0          
C477     C      0.169100000000     0.197300000000     0.163630000000     0          
H478     H      0.167500000000     0.223400000000     0.172100000000     0          
C479     C      0.356600000000     0.301700000000     0.182980000000     0          
H480     H      0.358300000000     0.274400000000     0.188800000000     0          
C481     C      0.206600000000     0.188900000000     0.139050000000     0          
C482     C      0.329200000000     0.312900000000     0.154490000000     0          
C483     C      0.303400000000     0.281600000000     0.132750000000     0          
C484     C      0.325900000000     0.353600000000     0.146440000000     0          
H485     H      0.307300000000     0.361300000000     0.127600000000     0          
C486     C      0.312600000000     0.283700000000     0.100010000000     0          
H487     H      0.335100000000     0.304500000000     0.091600000000     0          
C488     C      0.270100000000     0.250200000000     0.145330000000     0          
H489     H      0.264800000000     0.248500000000     0.167500000000     0          
C490     C      0.288300000000     0.254700000000     0.079010000000     0          
C491     C      0.244400000000     0.221100000000     0.125360000000     0          
C492     C      0.530200000000     0.965600000000     0.231300000000     0          
C493     C      0.296200000000     0.256400000000     0.045310000000     0          
C494     C      0.254100000000     0.223300000000     0.092470000000     0          
H495     H      0.237800000000     0.203800000000     0.079000000000     0          
C496     C      0.301100000000     0.256100000000     0.016400000000     0          
C497     C      0.549800000000     0.923700000000     0.234100000000     0          
H498     H      0.533700000000     0.906700000000     0.217500000000     0          
H499     H      0.533700000000     0.916300000000     0.254600000000     0          
H500     H      0.590700000000     0.920200000000     0.234600000000     0          
O501     O      0.559220000000     0.392180000000     0.302380000000     0          
O502     O      0.940940000000     0.108670000000     0.263540000000     0          
O503     O      0.607860000000     0.440280000000     0.330190000000     0          
O504     O      0.891850000000     0.059650000000     0.290620000000     0          
O505     O      0.426200000000     0.536870000000     0.269490000000     0          
C506     C      0.597700000000     0.404100000000     0.321880000000     0          
C507     C      0.635600000000     0.371830000000     0.336160000000     0          
C508     C      0.906000000000     0.096390000000     0.284690000000     0          
C509     C      0.877300000000     0.128110000000     0.305490000000     0          
C510     C      0.633600000000     0.332640000000     0.324090000000     0          
H511     H      0.608200000000     0.326400000000     0.307500000000     0          
C512     C      0.673400000000     0.380900000000     0.360530000000     0          
H513     H      0.675100000000     0.407200000000     0.368600000000     0          
C514     C      0.709000000000     0.351000000000     0.373360000000     0          
H515     H      0.734300000000     0.357300000000     0.390000000000     0          
C516     C      0.881400000000     0.169270000000     0.297400000000     0          
H517     H      0.900800000000     0.177100000000     0.278800000000     0          
C518     C      0.850000000000     0.116800000000     0.333740000000     0          
H519     H      0.847700000000     0.089500000000     0.339500000000     0          
C520     C      0.669100000000     0.302700000000     0.336370000000     0          
H521     H      0.667500000000     0.276600000000     0.327900000000     0          
C522     C      0.856600000000     0.198300000000     0.317020000000     0          
H523     H      0.858300000000     0.225600000000     0.311200000000     0          
C524     C      0.706600000000     0.311100000000     0.360950000000     0          
C525     C      0.829200000000     0.187100000000     0.345510000000     0          
C526     C      0.803400000000     0.218400000000     0.367250000000     0          
C527     C      0.825900000000     0.146400000000     0.353560000000     0          
H528     H      0.807300000000     0.138700000000     0.372400000000     0          
C529     C      0.812600000000     0.216300000000     0.399990000000     0          
H530     H      0.835100000000     0.195500000000     0.408400000000     0          
C531     C      0.770100000000     0.249800000000     0.354670000000     0          
H532     H      0.764800000000     0.251500000000     0.332500000000     0          
C533     C      0.788300000000     0.245300000000     0.420990000000     0          
C534     C      0.744400000000     0.278900000000     0.374640000000     0          
C535     C      0.030200000000     0.534400000000     0.268700000000     0          
C536     C      0.796200000000     0.243600000000     0.454690000000     0          
C537     C      0.754100000000     0.276700000000     0.407530000000     0          
H538     H      0.737800000000     0.296200000000     0.421000000000     0          
C539     C      0.801100000000     0.243900000000     0.483600000000     0          
O540     O      0.059220000000     0.892180000000     0.802380000000     0          
O541     O      0.440940000000     0.608670000000     0.763540000000     0          
O542     O      0.107860000000     0.940280000000     0.830190000000     0          
O543     O      0.391850000000     0.559650000000     0.790620000000     0          
O544     O      0.926200000000     0.036870000000     0.769490000000     0          
C545     C      0.097700000000     0.904100000000     0.821880000000     0          
C546     C      0.135600000000     0.871830000000     0.836160000000     0          
C547     C      0.406000000000     0.596390000000     0.784690000000     0          
C548     C      0.377300000000     0.628110000000     0.805490000000     0          
C549     C      0.133600000000     0.832640000000     0.824090000000     0          
H550     H      0.108200000000     0.826400000000     0.807500000000     0          
C551     C      0.173400000000     0.880900000000     0.860530000000     0          
H552     H      0.175100000000     0.907200000000     0.868600000000     0          
C553     C      0.209000000000     0.851000000000     0.873360000000     0          
H554     H      0.234300000000     0.857300000000     0.890000000000     0          
C555     C      0.381400000000     0.669270000000     0.797400000000     0          
H556     H      0.400800000000     0.677100000000     0.778800000000     0          
C557     C      0.350000000000     0.616800000000     0.833740000000     0          
H558     H      0.347700000000     0.589500000000     0.839500000000     0          
C559     C      0.169100000000     0.802700000000     0.836370000000     0          
H560     H      0.167500000000     0.776600000000     0.827900000000     0          
C561     C      0.356600000000     0.698300000000     0.817020000000     0          
H562     H      0.358300000000     0.725600000000     0.811200000000     0          
C563     C      0.206600000000     0.811100000000     0.860950000000     0          
C564     C      0.329200000000     0.687100000000     0.845510000000     0          
C565     C      0.303400000000     0.718400000000     0.867250000000     0          
C566     C      0.325900000000     0.646400000000     0.853560000000     0          
H567     H      0.307300000000     0.638700000000     0.872400000000     0          
C568     C      0.312600000000     0.716300000000     0.899990000000     0          
H569     H      0.335100000000     0.695500000000     0.908400000000     0          
C570     C      0.270100000000     0.749800000000     0.854670000000     0          
H571     H      0.264800000000     0.751500000000     0.832500000000     0          
C572     C      0.288300000000     0.745300000000     0.920990000000     0          
C573     C      0.244400000000     0.778900000000     0.874640000000     0          
C574     C      0.530200000000     0.034400000000     0.768700000000     0          
C575     C      0.296200000000     0.743600000000     0.954690000000     0          
C576     C      0.254100000000     0.776700000000     0.907530000000     0          
H577     H      0.237800000000     0.796200000000     0.921000000000     0          
C578     C      0.301100000000     0.743900000000     0.983600000000     0          
O579     O      0.440780000000     0.607820000000     0.302380000000     0          
O580     O      0.059060000000     0.891330000000     0.263540000000     0          
O581     O      0.392140000000     0.559720000000     0.330190000000     0          
O582     O      0.108150000000     0.940350000000     0.290620000000     0          
O583     O      0.573800000000     0.463130000000     0.269490000000     0          
C584     C      0.402300000000     0.595900000000     0.321880000000     0          
C585     C      0.364400000000     0.628170000000     0.336160000000     0          
C586     C      0.094000000000     0.903610000000     0.284690000000     0          
C587     C      0.122700000000     0.871890000000     0.305490000000     0          
C588     C      0.366400000000     0.667360000000     0.324090000000     0          
H589     H      0.391800000000     0.673600000000     0.307500000000     0          
C590     C      0.326600000000     0.619100000000     0.360530000000     0          
H591     H      0.324900000000     0.592800000000     0.368600000000     0          
C592     C      0.291000000000     0.649000000000     0.373360000000     0          
H593     H      0.265700000000     0.642700000000     0.390000000000     0          
C594     C      0.118600000000     0.830730000000     0.297400000000     0          
H595     H      0.099200000000     0.822900000000     0.278800000000     0          
C596     C      0.150000000000     0.883200000000     0.333740000000     0          
H597     H      0.152300000000     0.910500000000     0.339500000000     0          
C598     C      0.330900000000     0.697300000000     0.336370000000     0          
H599     H      0.332500000000     0.723400000000     0.327900000000     0          
C600     C      0.143400000000     0.801700000000     0.317020000000     0          
H601     H      0.141700000000     0.774400000000     0.311200000000     0          
C602     C      0.293400000000     0.688900000000     0.360950000000     0          
C603     C      0.170800000000     0.812900000000     0.345510000000     0          
C604     C      0.196600000000     0.781600000000     0.367250000000     0          
C605     C      0.174100000000     0.853600000000     0.353560000000     0          
H606     H      0.192700000000     0.861300000000     0.372400000000     0          
C607     C      0.187400000000     0.783700000000     0.399990000000     0          
H608     H      0.164900000000     0.804500000000     0.408400000000     0          
C609     C      0.229900000000     0.750200000000     0.354670000000     0          
H610     H      0.235200000000     0.748500000000     0.332500000000     0          
C611     C      0.211700000000     0.754700000000     0.420990000000     0          
C612     C      0.255600000000     0.721100000000     0.374640000000     0          
C613     C      0.969800000000     0.465600000000     0.268700000000     0          
C614     C      0.203800000000     0.756400000000     0.454690000000     0          
C615     C      0.245900000000     0.723300000000     0.407530000000     0          
H616     H      0.262200000000     0.703800000000     0.421000000000     0          
C617     C      0.198900000000     0.756100000000     0.483600000000     0          
O618     O      0.940780000000     0.107820000000     0.802380000000     0          
O619     O      0.559060000000     0.391330000000     0.763540000000     0          
O620     O      0.892140000000     0.059720000000     0.830190000000     0          
O621     O      0.608150000000     0.440350000000     0.790620000000     0          
O622     O      0.073800000000     0.963130000000     0.769490000000     0          
C623     C      0.902300000000     0.095900000000     0.821880000000     0          
C624     C      0.864400000000     0.128170000000     0.836160000000     0          
C625     C      0.594000000000     0.403610000000     0.784690000000     0          
C626     C      0.622700000000     0.371890000000     0.805490000000     0          
C627     C      0.866400000000     0.167360000000     0.824090000000     0          
H628     H      0.891800000000     0.173600000000     0.807500000000     0          
C629     C      0.826600000000     0.119100000000     0.860530000000     0          
H630     H      0.824900000000     0.092800000000     0.868600000000     0          
C631     C      0.791000000000     0.149000000000     0.873360000000     0          
H632     H      0.765700000000     0.142700000000     0.890000000000     0          
C633     C      0.618600000000     0.330730000000     0.797400000000     0          
H634     H      0.599200000000     0.322900000000     0.778800000000     0          
C635     C      0.650000000000     0.383200000000     0.833740000000     0          
H636     H      0.652300000000     0.410500000000     0.839500000000     0          
C637     C      0.830900000000     0.197300000000     0.836370000000     0          
H638     H      0.832500000000     0.223400000000     0.827900000000     0          
C639     C      0.643400000000     0.301700000000     0.817020000000     0          
H640     H      0.641700000000     0.274400000000     0.811200000000     0          
C641     C      0.793400000000     0.188900000000     0.860950000000     0          
C642     C      0.670800000000     0.312900000000     0.845510000000     0          
C643     C      0.696600000000     0.281600000000     0.867250000000     0          
C644     C      0.674100000000     0.353600000000     0.853560000000     0          
H645     H      0.692700000000     0.361300000000     0.872400000000     0          
C646     C      0.687400000000     0.283700000000     0.899990000000     0          
H647     H      0.664900000000     0.304500000000     0.908400000000     0          
C648     C      0.729900000000     0.250200000000     0.854670000000     0          
H649     H      0.735200000000     0.248500000000     0.832500000000     0          
C650     C      0.711700000000     0.254700000000     0.920990000000     0          
C651     C      0.755600000000     0.221100000000     0.874640000000     0          
C652     C      0.469800000000     0.965600000000     0.768700000000     0          
C653     C      0.703800000000     0.256400000000     0.954690000000     0          
C654     C      0.745900000000     0.223300000000     0.907530000000     0          
H655     H      0.762200000000     0.203800000000     0.921000000000     0          
C656     C      0.698900000000     0.256100000000     0.983600000000     0          
Zr657    Zr     0.424730000000     0.500000000000     0.312000000000     0          
Zr658    Zr     0.424220000000     0.500000000000     0.227020000000     0          
O659     O      0.332600000000     0.500000000000     0.242140000000     0          
O660     O      0.451400000000     0.500000000000     0.364150000000     0          
O661     O      0.332740000000     0.500000000000     0.296990000000     0          
O662     O      0.438800000000     0.500000000000     0.175240000000     0          
C663     C      0.308600000000     0.500000000000     0.269700000000     0          
C664     C      0.244500000000     0.500000000000     0.269300000000     0          
C665     C      0.215600000000     0.500000000000     0.241400000000     0          
H666     H      0.236000000000     0.500000000000     0.222100000000     0          
C667     C      0.124000000000     0.500000000000     0.269500000000     0          
C668     C      0.154700000000     0.500000000000     0.240400000000     0          
H669     H      0.135300000000     0.500000000000     0.220800000000     0          
C670     C      0.548800000000     0.500000000000     0.432000000000     0          
H671     H      0.583500000000     0.500000000000     0.420900000000     0          
C672     C      0.214200000000     0.500000000000     0.298100000000     0          
H673     H      0.233700000000     0.500000000000     0.317600000000     0          
C674     C      0.552200000000     0.500000000000     0.464400000000     0          
H675     H      0.587500000000     0.500000000000     0.474900000000     0          
C676     C      0.155400000000     0.500000000000     0.297600000000     0          
H677     H      0.135800000000     0.500000000000     0.317200000000     0          
C678     C      0.060500000000     0.500000000000     0.270500000000     0          
Zr679    Zr     0.924730000000     0.000000000000     0.812000000000     0          
Zr680    Zr     0.924220000000     0.000000000000     0.727020000000     0          
O681     O      0.832600000000     0.000000000000     0.742140000000     0          
O682     O      0.951400000000     0.000000000000     0.864150000000     0          
O683     O      0.832740000000     0.000000000000     0.796990000000     0          
O684     O      0.938800000000     0.000000000000     0.675240000000     0          
C685     C      0.808600000000     0.000000000000     0.769700000000     0          
C686     C      0.744500000000     0.000000000000     0.769300000000     0          
C687     C      0.715600000000     0.000000000000     0.741400000000     0          
H688     H      0.736000000000     0.000000000000     0.722100000000     0          
C689     C      0.624000000000     0.000000000000     0.769500000000     0          
C690     C      0.654700000000     0.000000000000     0.740400000000     0          
H691     H      0.635300000000     0.000000000000     0.720800000000     0          
C692     C      0.048800000000     0.000000000000     0.932000000000     0          
H693     H      0.083500000000     0.000000000000     0.920900000000     0          
C694     C      0.714200000000     0.000000000000     0.798100000000     0          
H695     H      0.733700000000     0.000000000000     0.817600000000     0          
C696     C      0.052200000000     0.000000000000     0.964400000000     0          
H697     H      0.087500000000     0.000000000000     0.974900000000     0          
C698     C      0.655400000000     0.000000000000     0.797600000000     0          
H699     H      0.635800000000     0.000000000000     0.817200000000     0          
C700     C      0.560500000000     0.000000000000     0.770500000000     0          
Zr701    Zr     0.575270000000     0.500000000000     0.312000000000     0          
Zr702    Zr     0.575780000000     0.500000000000     0.227020000000     0          
O703     O      0.667400000000     0.500000000000     0.242140000000     0          
O704     O      0.548600000000     0.500000000000     0.364150000000     0          
O705     O      0.667260000000     0.500000000000     0.296990000000     0          
O706     O      0.561200000000     0.500000000000     0.175240000000     0          
C707     C      0.691400000000     0.500000000000     0.269700000000     0          
C708     C      0.755500000000     0.500000000000     0.269300000000     0          
C709     C      0.784400000000     0.500000000000     0.241400000000     0          
H710     H      0.764000000000     0.500000000000     0.222100000000     0          
C711     C      0.876000000000     0.500000000000     0.269500000000     0          
C712     C      0.845300000000     0.500000000000     0.240400000000     0          
H713     H      0.864700000000     0.500000000000     0.220800000000     0          
C714     C      0.451200000000     0.500000000000     0.432000000000     0          
H715     H      0.416500000000     0.500000000000     0.420900000000     0          
C716     C      0.785800000000     0.500000000000     0.298100000000     0          
H717     H      0.766300000000     0.500000000000     0.317600000000     0          
C718     C      0.447800000000     0.500000000000     0.464400000000     0          
H719     H      0.412500000000     0.500000000000     0.474900000000     0          
C720     C      0.844600000000     0.500000000000     0.297600000000     0          
H721     H      0.864200000000     0.500000000000     0.317200000000     0          
C722     C      0.939500000000     0.500000000000     0.270500000000     0          
Zr723    Zr     0.075270000000     0.000000000000     0.812000000000     0          
Zr724    Zr     0.075780000000     0.000000000000     0.727020000000     0          
O725     O      0.167400000000     0.000000000000     0.742140000000     0          
O726     O      0.048600000000     0.000000000000     0.864150000000     0          
O727     O      0.167260000000     0.000000000000     0.796990000000     0          
O728     O      0.061200000000     0.000000000000     0.675240000000     0          
C729     C      0.191400000000     0.000000000000     0.769700000000     0          
C730     C      0.255500000000     0.000000000000     0.769300000000     0          
C731     C      0.284400000000     0.000000000000     0.741400000000     0          
H732     H      0.264000000000     0.000000000000     0.722100000000     0          
C733     C      0.376000000000     0.000000000000     0.769500000000     0          
C734     C      0.345300000000     0.000000000000     0.740400000000     0          
H735     H      0.364700000000     0.000000000000     0.720800000000     0          
C736     C      0.951200000000     0.000000000000     0.932000000000     0          
H737     H      0.916500000000     0.000000000000     0.920900000000     0          
C738     C      0.285800000000     0.000000000000     0.798100000000     0          
H739     H      0.266300000000     0.000000000000     0.817600000000     0          
C740     C      0.947800000000     0.000000000000     0.964400000000     0          
H741     H      0.912500000000     0.000000000000     0.974900000000     0          
C742     C      0.344600000000     0.000000000000     0.797600000000     0          
H743     H      0.364200000000     0.000000000000     0.817200000000     0          
C744     C      0.439500000000     0.000000000000     0.770500000000     0          
Zr745    Zr     0.575270000000     0.500000000000     0.688000000000     0          
Zr746    Zr     0.575780000000     0.500000000000     0.772980000000     0          
O747     O      0.667400000000     0.500000000000     0.757860000000     0          
O748     O      0.548600000000     0.500000000000     0.635850000000     0          
O749     O      0.667260000000     0.500000000000     0.703010000000     0          
O750     O      0.561200000000     0.500000000000     0.824760000000     0          
C751     C      0.691400000000     0.500000000000     0.730300000000     0          
C752     C      0.755500000000     0.500000000000     0.730700000000     0          
C753     C      0.784400000000     0.500000000000     0.758600000000     0          
H754     H      0.764000000000     0.500000000000     0.777900000000     0          
C755     C      0.876000000000     0.500000000000     0.730500000000     0          
C756     C      0.845300000000     0.500000000000     0.759600000000     0          
H757     H      0.864700000000     0.500000000000     0.779200000000     0          
C758     C      0.451200000000     0.500000000000     0.568000000000     0          
H759     H      0.416500000000     0.500000000000     0.579100000000     0          
C760     C      0.785800000000     0.500000000000     0.701900000000     0          
H761     H      0.766300000000     0.500000000000     0.682400000000     0          
C762     C      0.447800000000     0.500000000000     0.535600000000     0          
H763     H      0.412500000000     0.500000000000     0.525100000000     0          
C764     C      0.844600000000     0.500000000000     0.702400000000     0          
H765     H      0.864200000000     0.500000000000     0.682800000000     0          
C766     C      0.939500000000     0.500000000000     0.729500000000     0          
Zr767    Zr     0.075270000000     0.000000000000     0.188000000000     0          
Zr768    Zr     0.075780000000     0.000000000000     0.272980000000     0          
O769     O      0.167400000000     0.000000000000     0.257860000000     0          
O770     O      0.048600000000     0.000000000000     0.135850000000     0          
O771     O      0.167260000000     0.000000000000     0.203010000000     0          
O772     O      0.061200000000     0.000000000000     0.324760000000     0          
C773     C      0.191400000000     0.000000000000     0.230300000000     0          
C774     C      0.255500000000     0.000000000000     0.230700000000     0          
C775     C      0.284400000000     0.000000000000     0.258600000000     0          
H776     H      0.264000000000     0.000000000000     0.277900000000     0          
C777     C      0.376000000000     0.000000000000     0.230500000000     0          
C778     C      0.345300000000     0.000000000000     0.259600000000     0          
H779     H      0.364700000000     0.000000000000     0.279200000000     0          
C780     C      0.951200000000     0.000000000000     0.068000000000     0          
H781     H      0.916500000000     0.000000000000     0.079100000000     0          
C782     C      0.285800000000     0.000000000000     0.201900000000     0          
H783     H      0.266300000000     0.000000000000     0.182400000000     0          
C784     C      0.947800000000     0.000000000000     0.035600000000     0          
H785     H      0.912500000000     0.000000000000     0.025100000000     0          
C786     C      0.344600000000     0.000000000000     0.202400000000     0          
H787     H      0.364200000000     0.000000000000     0.182800000000     0          
C788     C      0.439500000000     0.000000000000     0.229500000000     0          
Zr789    Zr     0.424730000000     0.500000000000     0.688000000000     0          
Zr790    Zr     0.424220000000     0.500000000000     0.772980000000     0          
O791     O      0.332600000000     0.500000000000     0.757860000000     0          
O792     O      0.451400000000     0.500000000000     0.635850000000     0          
O793     O      0.332740000000     0.500000000000     0.703010000000     0          
O794     O      0.438800000000     0.500000000000     0.824760000000     0          
C795     C      0.308600000000     0.500000000000     0.730300000000     0          
C796     C      0.244500000000     0.500000000000     0.730700000000     0          
C797     C      0.215600000000     0.500000000000     0.758600000000     0          
H798     H      0.236000000000     0.500000000000     0.777900000000     0          
C799     C      0.124000000000     0.500000000000     0.730500000000     0          
C800     C      0.154700000000     0.500000000000     0.759600000000     0          
H801     H      0.135300000000     0.500000000000     0.779200000000     0          
C802     C      0.548800000000     0.500000000000     0.568000000000     0          
H803     H      0.583500000000     0.500000000000     0.579100000000     0          
C804     C      0.214200000000     0.500000000000     0.701900000000     0          
H805     H      0.233700000000     0.500000000000     0.682400000000     0          
C806     C      0.552200000000     0.500000000000     0.535600000000     0          
H807     H      0.587500000000     0.500000000000     0.525100000000     0          
C808     C      0.155400000000     0.500000000000     0.702400000000     0          
H809     H      0.135800000000     0.500000000000     0.682800000000     0          
C810     C      0.060500000000     0.500000000000     0.729500000000     0          
Zr811    Zr     0.924730000000     0.000000000000     0.188000000000     0          
Zr812    Zr     0.924220000000     0.000000000000     0.272980000000     0          
O813     O      0.832600000000     0.000000000000     0.257860000000     0          
O814     O      0.951400000000     0.000000000000     0.135850000000     0          
O815     O      0.832740000000     0.000000000000     0.203010000000     0          
O816     O      0.938800000000     0.000000000000     0.324760000000     0          
C817     C      0.808600000000     0.000000000000     0.230300000000     0          
C818     C      0.744500000000     0.000000000000     0.230700000000     0          
C819     C      0.715600000000     0.000000000000     0.258600000000     0          
H820     H      0.736000000000     0.000000000000     0.277900000000     0          
C821     C      0.624000000000     0.000000000000     0.230500000000     0          
C822     C      0.654700000000     0.000000000000     0.259600000000     0          
H823     H      0.635300000000     0.000000000000     0.279200000000     0          
C824     C      0.048800000000     0.000000000000     0.068000000000     0          
H825     H      0.083500000000     0.000000000000     0.079100000000     0          
C826     C      0.714200000000     0.000000000000     0.201900000000     0          
H827     H      0.733700000000     0.000000000000     0.182400000000     0          
C828     C      0.052200000000     0.000000000000     0.035600000000     0          
H829     H      0.087500000000     0.000000000000     0.025100000000     0          
C830     C      0.655400000000     0.000000000000     0.202400000000     0          
H831     H      0.635800000000     0.000000000000     0.182800000000     0          
C832     C      0.560500000000     0.000000000000     0.229500000000     0          
Zr833    Zr     0.500000000000     0.575230000000     0.269330000000     0          
O834     O      0.500000000000     0.536960000000     0.227120000000     0          
O835     O      0.500000000000     0.537110000000     0.310860000000     0          
Zr836    Zr     0.000000000000     0.075230000000     0.769330000000     0          
O837     O      0.000000000000     0.036960000000     0.727120000000     0          
O838     O      0.000000000000     0.037110000000     0.810860000000     0          
Zr839    Zr     0.500000000000     0.424770000000     0.269330000000     0          
O840     O      0.500000000000     0.463040000000     0.227120000000     0          
O841     O      0.500000000000     0.462890000000     0.310860000000     0          
Zr842    Zr     0.000000000000     0.924770000000     0.769330000000     0          
O843     O      0.000000000000     0.963040000000     0.727120000000     0          
O844     O      0.000000000000     0.962890000000     0.810860000000     0          
Zr845    Zr     0.500000000000     0.575230000000     0.730670000000     0          
O846     O      0.500000000000     0.536960000000     0.772880000000     0          
O847     O      0.500000000000     0.537110000000     0.689140000000     0          
Zr848    Zr     0.000000000000     0.075230000000     0.230670000000     0          
O849     O      0.000000000000     0.036960000000     0.272880000000     0          
O850     O      0.000000000000     0.037110000000     0.189140000000     0          
Zr851    Zr     0.500000000000     0.424770000000     0.730670000000     0          
O852     O      0.500000000000     0.463040000000     0.772880000000     0          
O853     O      0.500000000000     0.462890000000     0.689140000000     0          
Zr854    Zr     0.000000000000     0.924770000000     0.230670000000     0          
O855     O      0.000000000000     0.963040000000     0.272880000000     0          
O856     O      0.000000000000     0.962890000000     0.189140000000     0          
C857     C      0.500000000000     0.500000000000     0.377700000000     0          
C858     C      0.500000000000     0.500000000000     0.413700000000     0          
C859     C      0.500000000000     0.500000000000     0.481800000000     0          
C860     C      0.000000000000     0.000000000000     0.877700000000     0          
C861     C      0.000000000000     0.000000000000     0.913700000000     0          
C862     C      0.000000000000     0.000000000000     0.981800000000     0          
C863     C      0.500000000000     0.500000000000     0.622300000000     0          
C864     C      0.500000000000     0.500000000000     0.586300000000     0          
C865     C      0.500000000000     0.500000000000     0.518200000000     0          
C866     C      0.000000000000     0.000000000000     0.122300000000     0          
C867     C      0.000000000000     0.000000000000     0.086300000000     0          
C868     C      0.000000000000     0.000000000000     0.018200000000     0          
H869     H      0.946680000000     0.435140000000     0.732890000000     0          
H870     H      0.946680000000     0.435140000000     0.267110000000     0          
H871     H      0.053320000000     0.564860000000     0.732890000000     0          
H872     H      0.053320000000     0.564860000000     0.267110000000     0          
H873     H      0.446680000000     0.935140000000     0.232890000000     0          
H874     H      0.446680000000     0.935140000000     0.767110000000     0          
H875     H      0.553320000000     0.064860000000     0.232890000000     0          
H876     H      0.553320000000     0.064860000000     0.767110000000     0          


