data_IDAHON

_audit_creation_method RASPA-1.0
_audit_creation_date 2020-11-2
_audit_author_name 'Rocio Bueno-Perez'

_cell_length_a    24.0688
_cell_length_b    24.0688
_cell_length_c    30.1366
_cell_angle_alpha 90
_cell_angle_beta  90
_cell_angle_gamma 120
_cell_volume      15119.4

_symmetry_cell_setting          triclinic
_symmetry_space_group_name_Hall 'P 1'
_symmetry_space_group_name_H-M  'P 1'
_symmetry_Int_Tables_number     1

_symmetry_equiv_pos_as_xyz 'x,y,z'

loop_
_atom_site_label
_atom_site_type_symbol
_atom_site_fract_x
_atom_site_fract_y
_atom_site_fract_z
_atom_site_charge
Zr1      Zr     0.687720000000     0.261820000000     0.369320000000     0          
Zr2      Zr     0.596730000000     0.240310000000     0.465230000000     0          
O3       O      0.763570000000     0.240900000000     0.365540000000     0          
O4       O      0.859200000000     0.330640000000     0.356300000000     0          
O5       O      0.686660000000     0.271680000000     0.438510000000     0          
O6       O      0.584100000000     0.228490000000     0.392310000000     0          
H7       H      0.548600000000     0.191100000000     0.381200000000     0          
O8       O      0.646600000000     0.159510000000     0.390120000000     0          
O9       O      0.586110000000     0.144230000000     0.450760000000     0          
O10      O      0.627010000000     0.211070000000     0.313840000000     0          
O11      O      0.566370000000     0.256810000000     0.304490000000     0          
O12      O      0.544970000000     0.258390000000     0.522380000000     0          
O13      O      0.579420000000     0.364490000000     0.522820000000     0          
C14      C      0.938510000000     0.218300000000     0.314930000000     0          
C15      C      0.913630000000     0.257340000000     0.328280000000     0          
H16      H      0.941300000000     0.302300000000     0.331400000000     0          
C17      C      0.848410000000     0.230180000000     0.336880000000     0          
C18      C      0.807630000000     0.165000000000     0.331560000000     0          
H19      H      0.763000000000     0.147000000000     0.336900000000     0          
C20      C      0.831520000000     0.125390000000     0.318360000000     0          
C21      C      0.897210000000     0.152490000000     0.310580000000     0          
H22      H      0.914000000000     0.125700000000     0.302200000000     0          
C23      C      0.005710000000     0.246900000000     0.307080000000     0          
C24      C      0.062480000000     0.272900000000     0.301640000000     0          
C25      C      0.823360000000     0.272190000000     0.353610000000     0          
C26      C      0.788190000000     0.057800000000     0.312530000000     0          
C27      C      0.751300000000     0.002050000000     0.306680000000     0          
C28      C      0.710000000000     0.934660000000     0.299170000000     0          
C29      C      0.646100000000     0.908860000000     0.287000000000     0          
H30      H      0.628200000000     0.935900000000     0.283600000000     0          
C31      C      0.608600000000     0.843400000000     0.279910000000     0          
H32      H      0.564900000000     0.825700000000     0.271400000000     0          
C33      C      0.634300000000     0.803460000000     0.285120000000     0          
H34      H      0.607900000000     0.758500000000     0.280800000000     0          
C35      C      0.698100000000     0.828800000000     0.296550000000     0          
C36      C      0.736110000000     0.894740000000     0.303950000000     0          
H37      H      0.779800000000     0.912400000000     0.312300000000     0          
C38      C      0.588720000000     0.055150000000     0.419670000000     0          
C39      C      0.611100000000     0.030970000000     0.387170000000     0          
H40      H      0.639800000000     0.058700000000     0.365200000000     0          
C41      C      0.591600000000     0.966100000000     0.386650000000     0          
H42      H      0.607800000000     0.949400000000     0.364800000000     0          
C43      C      0.548700000000     0.926000000000     0.418110000000     0          
H44      H      0.533400000000     0.881200000000     0.416800000000     0          
C45      C      0.528200000000     0.950000000000     0.450840000000     0          
H46      H      0.500000000000     0.922300000000     0.473100000000     0          
C47      C      0.548100000000     0.014680000000     0.452010000000     0          
H48      H      0.533800000000     0.031300000000     0.475100000000     0          
C49      C      0.608740000000     0.125240000000     0.420360000000     0          
C50      C      0.589800000000     0.214300000000     0.239860000000     0          
C51      C      0.615000000000     0.177200000000     0.223950000000     0          
H52      H      0.631600000000     0.158400000000     0.244300000000     0          
C53      C      0.616300000000     0.167600000000     0.178570000000     0          
H54      H      0.633700000000     0.142000000000     0.167600000000     0          
C55      C      0.592300000000     0.194900000000     0.149120000000     0          
H56      H      0.593200000000     0.188200000000     0.117800000000     0          
C57      C      0.567100000000     0.231900000000     0.165010000000     0          
H58      H      0.550500000000     0.250700000000     0.144700000000     0          
C59      C      0.565800000000     0.241600000000     0.210400000000     0          
H60      H      0.548400000000     0.267100000000     0.221400000000     0          
C61      C      0.592770000000     0.226780000000     0.290640000000     0          
C62      C      0.481510000000     0.294540000000     0.557950000000     0          
C63      C      0.437500000000     0.233300000000     0.572670000000     0          
H64      H      0.444600000000     0.198600000000     0.566900000000     0          
C65      C      0.383700000000     0.222800000000     0.595600000000     0          
H66      H      0.354000000000     0.180900000000     0.606000000000     0          
C67      C      0.372700000000     0.272700000000     0.603600000000     0          
H68      H      0.335800000000     0.265400000000     0.619900000000     0          
C69      C      0.414600000000     0.332700000000     0.588200000000     0          
H70      H      0.406100000000     0.366800000000     0.593100000000     0          
C71      C      0.469400000000     0.344400000000     0.565550000000     0          
H72      H      0.498600000000     0.386400000000     0.555200000000     0          
C73      C      0.539720000000     0.306410000000     0.532830000000     0          
O74      O      0.491530000000     0.171850000000     0.459570000000     0          
N75      N      0.387610000000     0.144650000000     0.453700000000     0          
C76      C      0.448960000000     0.186830000000     0.457310000000     0          
H77      H      0.461600000000     0.231000000000     0.458200000000     0          
C78      C      0.338100000000     0.164000000000     0.450450000000     0          
H79      H      0.313500000000     0.145700000000     0.422800000000     0          
H80      H      0.308000000000     0.144400000000     0.475600000000     0          
C81      C      0.361900000000     0.233200000000     0.450630000000     0          
H82      H      0.325600000000     0.240800000000     0.448100000000     0          
H83      H      0.391000000000     0.253200000000     0.425500000000     0          
H84      H      0.385000000000     0.251800000000     0.478400000000     0          
C85      C      0.365100000000     0.075900000000     0.450790000000     0          
H86      H      0.402500000000     0.069900000000     0.446000000000     0          
H87      H      0.336600000000     0.058000000000     0.424700000000     0          
C88      C      0.329300000000     0.038500000000     0.491500000000     0          
H89      H      0.316000000000     0.993100000000     0.487400000000     0          
H90      H      0.291200000000     0.042700000000     0.495900000000     0          
H91      H      0.357300000000     0.055300000000     0.517500000000     0          
Zr92     Zr     0.738180000000     0.425900000000     0.369320000000     0          
Zr93     Zr     0.759690000000     0.356420000000     0.465230000000     0          
O94      O      0.759100000000     0.522670000000     0.365540000000     0          
O95      O      0.669360000000     0.528560000000     0.356300000000     0          
O96      O      0.728320000000     0.414980000000     0.438510000000     0          
O97      O      0.771510000000     0.355610000000     0.392310000000     0          
H98      H      0.808900000000     0.357500000000     0.381200000000     0          
O99      O      0.840490000000     0.487090000000     0.390120000000     0          
O100     O      0.855770000000     0.441880000000     0.450760000000     0          
O101     O      0.788930000000     0.415940000000     0.313840000000     0          
O102     O      0.743190000000     0.309560000000     0.304490000000     0          
O103     O      0.741610000000     0.286580000000     0.522380000000     0          
O104     O      0.635510000000     0.214930000000     0.522820000000     0          
C105     C      0.781700000000     0.720210000000     0.314930000000     0          
C106     C      0.742660000000     0.656290000000     0.328280000000     0          
H107     H      0.697700000000     0.639000000000     0.331400000000     0          
C108     C      0.769820000000     0.618230000000     0.336880000000     0          
C109     C      0.835000000000     0.642630000000     0.331560000000     0          
H110     H      0.853000000000     0.616000000000     0.336900000000     0          
C111     C      0.874610000000     0.706130000000     0.318360000000     0          
C112     C      0.847510000000     0.744720000000     0.310580000000     0          
H113     H      0.874300000000     0.788300000000     0.302200000000     0          
C114     C      0.753100000000     0.758810000000     0.307080000000     0          
C115     C      0.727100000000     0.789580000000     0.301640000000     0          
C116     C      0.727810000000     0.551170000000     0.353610000000     0          
C117     C      0.942200000000     0.730390000000     0.312530000000     0          
C118     C      0.997950000000     0.749250000000     0.306680000000     0          
C119     C      0.065340000000     0.775340000000     0.299170000000     0          
C120     C      0.091140000000     0.737240000000     0.287000000000     0          
H121     H      0.064100000000     0.692300000000     0.283600000000     0          
C122     C      0.156600000000     0.765200000000     0.279910000000     0          
H123     H      0.174300000000     0.739200000000     0.271400000000     0          
C124     C      0.196540000000     0.830840000000     0.285120000000     0          
H125     H      0.241500000000     0.849400000000     0.280800000000     0          
C126     C      0.171200000000     0.869300000000     0.296550000000     0          
C127     C      0.105260000000     0.841370000000     0.303950000000     0          
H128     H      0.087600000000     0.867400000000     0.312300000000     0          
C129     C      0.944850000000     0.533570000000     0.419670000000     0          
C130     C      0.969030000000     0.580130000000     0.387170000000     0          
H131     H      0.941300000000     0.581100000000     0.365200000000     0          
C132     C      0.033900000000     0.625500000000     0.386650000000     0          
H133     H      0.050600000000     0.658400000000     0.364800000000     0          
C134     C      0.074000000000     0.622700000000     0.418110000000     0          
H135     H      0.118800000000     0.652200000000     0.416800000000     0          
C136     C      0.050000000000     0.578200000000     0.450840000000     0          
H137     H      0.077700000000     0.577700000000     0.473100000000     0          
C138     C      0.985320000000     0.533420000000     0.452010000000     0          
H139     H      0.968700000000     0.502500000000     0.475100000000     0          
C140     C      0.874760000000     0.483500000000     0.420360000000     0          
C141     C      0.785700000000     0.375500000000     0.239860000000     0          
C142     C      0.822800000000     0.437800000000     0.223950000000     0          
H143     H      0.841600000000     0.473200000000     0.244300000000     0          
C144     C      0.832400000000     0.448700000000     0.178570000000     0          
H145     H      0.858000000000     0.491700000000     0.167600000000     0          
C146     C      0.805100000000     0.397400000000     0.149120000000     0          
H147     H      0.811800000000     0.405000000000     0.117800000000     0          
C148     C      0.768100000000     0.335200000000     0.165010000000     0          
H149     H      0.749300000000     0.299800000000     0.144700000000     0          
C150     C      0.758400000000     0.324200000000     0.210400000000     0          
H151     H      0.732900000000     0.281300000000     0.221400000000     0          
C152     C      0.773220000000     0.365990000000     0.290640000000     0          
C153     C      0.705460000000     0.186970000000     0.557950000000     0          
C154     C      0.766700000000     0.204200000000     0.572670000000     0          
H155     H      0.801400000000     0.246000000000     0.566900000000     0          
C156     C      0.777200000000     0.160900000000     0.595600000000     0          
H157     H      0.819100000000     0.173100000000     0.606000000000     0          
C158     C      0.727300000000     0.100000000000     0.603600000000     0          
H159     H      0.734600000000     0.070400000000     0.619900000000     0          
C160     C      0.667300000000     0.081900000000     0.588200000000     0          
H161     H      0.633200000000     0.039300000000     0.593100000000     0          
C162     C      0.655600000000     0.125000000000     0.565550000000     0          
H163     H      0.613600000000     0.112200000000     0.555200000000     0          
C164     C      0.693590000000     0.233310000000     0.532830000000     0          
O165     O      0.828150000000     0.319680000000     0.459570000000     0          
N166     N      0.855350000000     0.242960000000     0.453700000000     0          
C167     C      0.813170000000     0.262130000000     0.457310000000     0          
H168     H      0.769000000000     0.230600000000     0.458200000000     0          
C169     C      0.836000000000     0.174100000000     0.450450000000     0          
H170     H      0.854300000000     0.167800000000     0.422800000000     0          
H171     H      0.855600000000     0.163600000000     0.475600000000     0          
C172     C      0.766800000000     0.128700000000     0.450630000000     0          
H173     H      0.759200000000     0.084800000000     0.448100000000     0          
H174     H      0.746800000000     0.137800000000     0.425500000000     0          
H175     H      0.748200000000     0.133200000000     0.478400000000     0          
C176     C      0.924100000000     0.289200000000     0.450790000000     0          
H177     H      0.930100000000     0.332600000000     0.446000000000     0          
H178     H      0.942000000000     0.278600000000     0.424700000000     0          
C179     C      0.961500000000     0.290800000000     0.491500000000     0          
H180     H      0.006900000000     0.322900000000     0.487400000000     0          
H181     H      0.957300000000     0.248500000000     0.495900000000     0          
H182     H      0.944700000000     0.302000000000     0.517500000000     0          
Zr183    Zr     0.574100000000     0.312280000000     0.369320000000     0          
Zr184    Zr     0.643580000000     0.403270000000     0.465230000000     0          
O185     O      0.477330000000     0.236430000000     0.365540000000     0          
O186     O      0.471440000000     0.140800000000     0.356300000000     0          
O187     O      0.585020000000     0.313340000000     0.438510000000     0          
O188     O      0.644390000000     0.415900000000     0.392310000000     0          
H189     H      0.642500000000     0.451400000000     0.381200000000     0          
O190     O      0.512910000000     0.353400000000     0.390120000000     0          
O191     O      0.558120000000     0.413890000000     0.450760000000     0          
O192     O      0.584060000000     0.372990000000     0.313840000000     0          
O193     O      0.690440000000     0.433630000000     0.304490000000     0          
O194     O      0.713420000000     0.455030000000     0.522380000000     0          
O195     O      0.785070000000     0.420580000000     0.522820000000     0          
C196     C      0.279790000000     0.061490000000     0.314930000000     0          
C197     C      0.343710000000     0.086370000000     0.328280000000     0          
H198     H      0.361000000000     0.058700000000     0.331400000000     0          
C199     C      0.381770000000     0.151590000000     0.336880000000     0          
C200     C      0.357370000000     0.192370000000     0.331560000000     0          
H201     H      0.384000000000     0.237000000000     0.336900000000     0          
C202     C      0.293870000000     0.168480000000     0.318360000000     0          
C203     C      0.255280000000     0.102790000000     0.310580000000     0          
H204     H      0.211700000000     0.086000000000     0.302200000000     0          
C205     C      0.241190000000     0.994290000000     0.307080000000     0          
C206     C      0.210420000000     0.937520000000     0.301640000000     0          
C207     C      0.448830000000     0.176640000000     0.353610000000     0          
C208     C      0.269610000000     0.211810000000     0.312530000000     0          
C209     C      0.250750000000     0.248700000000     0.306680000000     0          
C210     C      0.224660000000     0.290000000000     0.299170000000     0          
C211     C      0.262760000000     0.353900000000     0.287000000000     0          
H212     H      0.307700000000     0.371800000000     0.283600000000     0          
C213     C      0.234800000000     0.391400000000     0.279910000000     0          
H214     H      0.260800000000     0.435100000000     0.271400000000     0          
C215     C      0.169160000000     0.365700000000     0.285120000000     0          
H216     H      0.150600000000     0.392100000000     0.280800000000     0          
C217     C      0.130700000000     0.301900000000     0.296550000000     0          
C218     C      0.158630000000     0.263890000000     0.303950000000     0          
H219     H      0.132600000000     0.220200000000     0.312300000000     0          
C220     C      0.466430000000     0.411280000000     0.419670000000     0          
C221     C      0.419870000000     0.388900000000     0.387170000000     0          
H222     H      0.418900000000     0.360200000000     0.365200000000     0          
C223     C      0.374500000000     0.408400000000     0.386650000000     0          
H224     H      0.341600000000     0.392200000000     0.364800000000     0          
C225     C      0.377300000000     0.451300000000     0.418110000000     0          
H226     H      0.347800000000     0.466600000000     0.416800000000     0          
C227     C      0.421800000000     0.471800000000     0.450840000000     0          
H228     H      0.422300000000     0.500000000000     0.473100000000     0          
C229     C      0.466580000000     0.451900000000     0.452010000000     0          
H230     H      0.497500000000     0.466200000000     0.475100000000     0          
C231     C      0.516500000000     0.391260000000     0.420360000000     0          
C232     C      0.624500000000     0.410200000000     0.239860000000     0          
C233     C      0.562200000000     0.385000000000     0.223950000000     0          
H234     H      0.526800000000     0.368400000000     0.244300000000     0          
C235     C      0.551300000000     0.383700000000     0.178570000000     0          
H236     H      0.508300000000     0.366300000000     0.167600000000     0          
C237     C      0.602600000000     0.407700000000     0.149120000000     0          
H238     H      0.595000000000     0.406800000000     0.117800000000     0          
C239     C      0.664800000000     0.432900000000     0.165010000000     0          
H240     H      0.700200000000     0.449500000000     0.144700000000     0          
C241     C      0.675800000000     0.434200000000     0.210400000000     0          
H242     H      0.718700000000     0.451600000000     0.221400000000     0          
C243     C      0.634010000000     0.407230000000     0.290640000000     0          
C244     C      0.813030000000     0.518490000000     0.557950000000     0          
C245     C      0.795800000000     0.562500000000     0.572670000000     0          
H246     H      0.754000000000     0.555400000000     0.566900000000     0          
C247     C      0.839100000000     0.616300000000     0.595600000000     0          
H248     H      0.826900000000     0.646000000000     0.606000000000     0          
C249     C      0.900000000000     0.627300000000     0.603600000000     0          
H250     H      0.929600000000     0.664200000000     0.619900000000     0          
C251     C      0.918100000000     0.585400000000     0.588200000000     0          
H252     H      0.960700000000     0.593900000000     0.593100000000     0          
C253     C      0.875000000000     0.530600000000     0.565550000000     0          
H254     H      0.887800000000     0.501400000000     0.555200000000     0          
C255     C      0.766690000000     0.460280000000     0.532830000000     0          
O256     O      0.680320000000     0.508470000000     0.459570000000     0          
N257     N      0.757040000000     0.612390000000     0.453700000000     0          
C258     C      0.737870000000     0.551040000000     0.457310000000     0          
H259     H      0.769400000000     0.538400000000     0.458200000000     0          
C260     C      0.825900000000     0.661900000000     0.450450000000     0          
H261     H      0.832200000000     0.686500000000     0.422800000000     0          
H262     H      0.836400000000     0.692000000000     0.475600000000     0          
C263     C      0.871300000000     0.638100000000     0.450630000000     0          
H264     H      0.915200000000     0.674400000000     0.448100000000     0          
H265     H      0.862200000000     0.609000000000     0.425500000000     0          
H266     H      0.866800000000     0.615000000000     0.478400000000     0          
C267     C      0.710800000000     0.634900000000     0.450790000000     0          
H268     H      0.667400000000     0.597500000000     0.446000000000     0          
H269     H      0.721400000000     0.663400000000     0.424700000000     0          
C270     C      0.709200000000     0.670700000000     0.491500000000     0          
H271     H      0.677100000000     0.684000000000     0.487400000000     0          
H272     H      0.751500000000     0.708800000000     0.495900000000     0          
H273     H      0.698000000000     0.642700000000     0.517500000000     0          
Zr274    Zr     0.261820000000     0.687720000000     0.130680000000     0          
Zr275    Zr     0.240310000000     0.596730000000     0.034770000000     0          
O276     O      0.240900000000     0.763570000000     0.134460000000     0          
O277     O      0.330640000000     0.859200000000     0.143700000000     0          
O278     O      0.271680000000     0.686660000000     0.061490000000     0          
O279     O      0.228490000000     0.584100000000     0.107690000000     0          
H280     H      0.191100000000     0.548600000000     0.118800000000     0          
O281     O      0.159510000000     0.646600000000     0.109880000000     0          
O282     O      0.144230000000     0.586110000000     0.049240000000     0          
O283     O      0.211070000000     0.627010000000     0.186160000000     0          
O284     O      0.256810000000     0.566370000000     0.195510000000     0          
O285     O      0.258390000000     0.544970000000     0.977620000000     0          
O286     O      0.364490000000     0.579420000000     0.977180000000     0          
C287     C      0.218300000000     0.938510000000     0.185070000000     0          
C288     C      0.257340000000     0.913630000000     0.171720000000     0          
H289     H      0.302300000000     0.941300000000     0.168600000000     0          
C290     C      0.230180000000     0.848410000000     0.163120000000     0          
C291     C      0.165000000000     0.807630000000     0.168440000000     0          
H292     H      0.147000000000     0.763000000000     0.163100000000     0          
C293     C      0.125390000000     0.831520000000     0.181640000000     0          
C294     C      0.152490000000     0.897210000000     0.189420000000     0          
H295     H      0.125700000000     0.914000000000     0.197800000000     0          
C296     C      0.246900000000     0.005710000000     0.192920000000     0          
C297     C      0.272900000000     0.062480000000     0.198360000000     0          
C298     C      0.272190000000     0.823360000000     0.146390000000     0          
C299     C      0.057800000000     0.788190000000     0.187470000000     0          
C300     C      0.002050000000     0.751300000000     0.193320000000     0          
C301     C      0.934660000000     0.710000000000     0.200830000000     0          
C302     C      0.908860000000     0.646100000000     0.213000000000     0          
H303     H      0.935900000000     0.628200000000     0.216400000000     0          
C304     C      0.843400000000     0.608600000000     0.220090000000     0          
H305     H      0.825700000000     0.564900000000     0.228600000000     0          
C306     C      0.803460000000     0.634300000000     0.214880000000     0          
H307     H      0.758500000000     0.607900000000     0.219200000000     0          
C308     C      0.828800000000     0.698100000000     0.203450000000     0          
C309     C      0.894740000000     0.736110000000     0.196050000000     0          
H310     H      0.912400000000     0.779800000000     0.187700000000     0          
C311     C      0.055150000000     0.588720000000     0.080330000000     0          
C312     C      0.030970000000     0.611100000000     0.112830000000     0          
H313     H      0.058700000000     0.639800000000     0.134800000000     0          
C314     C      0.966100000000     0.591600000000     0.113350000000     0          
H315     H      0.949400000000     0.607800000000     0.135200000000     0          
C316     C      0.926000000000     0.548700000000     0.081890000000     0          
H317     H      0.881200000000     0.533400000000     0.083200000000     0          
C318     C      0.950000000000     0.528200000000     0.049160000000     0          
H319     H      0.922300000000     0.500000000000     0.026900000000     0          
C320     C      0.014680000000     0.548100000000     0.047990000000     0          
H321     H      0.031300000000     0.533800000000     0.024900000000     0          
C322     C      0.125240000000     0.608740000000     0.079640000000     0          
C323     C      0.214300000000     0.589800000000     0.260140000000     0          
C324     C      0.177200000000     0.615000000000     0.276050000000     0          
H325     H      0.158400000000     0.631600000000     0.255700000000     0          
C326     C      0.167600000000     0.616300000000     0.321430000000     0          
H327     H      0.142000000000     0.633700000000     0.332400000000     0          
C328     C      0.194900000000     0.592300000000     0.350880000000     0          
H329     H      0.188200000000     0.593200000000     0.382200000000     0          
C330     C      0.231900000000     0.567100000000     0.334990000000     0          
H331     H      0.250700000000     0.550500000000     0.355300000000     0          
C332     C      0.241600000000     0.565800000000     0.289600000000     0          
H333     H      0.267100000000     0.548400000000     0.278600000000     0          
C334     C      0.226780000000     0.592770000000     0.209360000000     0          
C335     C      0.294540000000     0.481510000000     0.942050000000     0          
C336     C      0.233300000000     0.437500000000     0.927330000000     0          
H337     H      0.198600000000     0.444600000000     0.933100000000     0          
C338     C      0.222800000000     0.383700000000     0.904400000000     0          
H339     H      0.180900000000     0.354000000000     0.894000000000     0          
C340     C      0.272700000000     0.372700000000     0.896400000000     0          
H341     H      0.265400000000     0.335800000000     0.880100000000     0          
C342     C      0.332700000000     0.414600000000     0.911800000000     0          
H343     H      0.366800000000     0.406100000000     0.906900000000     0          
C344     C      0.344400000000     0.469400000000     0.934450000000     0          
H345     H      0.386400000000     0.498600000000     0.944800000000     0          
C346     C      0.306410000000     0.539720000000     0.967170000000     0          
O347     O      0.171850000000     0.491530000000     0.040430000000     0          
N348     N      0.144650000000     0.387610000000     0.046300000000     0          
C349     C      0.186830000000     0.448960000000     0.042690000000     0          
H350     H      0.231000000000     0.461600000000     0.041800000000     0          
C351     C      0.164000000000     0.338100000000     0.049550000000     0          
H352     H      0.145700000000     0.313500000000     0.077200000000     0          
H353     H      0.144400000000     0.308000000000     0.024400000000     0          
C354     C      0.233200000000     0.361900000000     0.049370000000     0          
H355     H      0.240800000000     0.325600000000     0.051900000000     0          
H356     H      0.253200000000     0.391000000000     0.074500000000     0          
H357     H      0.251800000000     0.385000000000     0.021600000000     0          
C358     C      0.075900000000     0.365100000000     0.049210000000     0          
H359     H      0.069900000000     0.402500000000     0.054000000000     0          
H360     H      0.058000000000     0.336600000000     0.075300000000     0          
C361     C      0.038500000000     0.329300000000     0.008500000000     0          
H362     H      0.993100000000     0.316000000000     0.012600000000     0          
H363     H      0.042700000000     0.291200000000     0.004100000000     0          
H364     H      0.055300000000     0.357300000000     0.982500000000     0          
Zr365    Zr     0.425900000000     0.738180000000     0.130680000000     0          
Zr366    Zr     0.356420000000     0.759690000000     0.034770000000     0          
O367     O      0.522670000000     0.759100000000     0.134460000000     0          
O368     O      0.528560000000     0.669360000000     0.143700000000     0          
O369     O      0.414980000000     0.728320000000     0.061490000000     0          
O370     O      0.355610000000     0.771510000000     0.107690000000     0          
H371     H      0.357500000000     0.808900000000     0.118800000000     0          
O372     O      0.487090000000     0.840490000000     0.109880000000     0          
O373     O      0.441880000000     0.855770000000     0.049240000000     0          
O374     O      0.415940000000     0.788930000000     0.186160000000     0          
O375     O      0.309560000000     0.743190000000     0.195510000000     0          
O376     O      0.286580000000     0.741610000000     0.977620000000     0          
O377     O      0.214930000000     0.635510000000     0.977180000000     0          
C378     C      0.720210000000     0.781700000000     0.185070000000     0          
C379     C      0.656290000000     0.742660000000     0.171720000000     0          
H380     H      0.639000000000     0.697700000000     0.168600000000     0          
C381     C      0.618230000000     0.769820000000     0.163120000000     0          
C382     C      0.642630000000     0.835000000000     0.168440000000     0          
H383     H      0.616000000000     0.853000000000     0.163100000000     0          
C384     C      0.706130000000     0.874610000000     0.181640000000     0          
C385     C      0.744720000000     0.847510000000     0.189420000000     0          
H386     H      0.788300000000     0.874300000000     0.197800000000     0          
C387     C      0.758810000000     0.753100000000     0.192920000000     0          
C388     C      0.789580000000     0.727100000000     0.198360000000     0          
C389     C      0.551170000000     0.727810000000     0.146390000000     0          
C390     C      0.730390000000     0.942200000000     0.187470000000     0          
C391     C      0.749250000000     0.997950000000     0.193320000000     0          
C392     C      0.775340000000     0.065340000000     0.200830000000     0          
C393     C      0.737240000000     0.091140000000     0.213000000000     0          
H394     H      0.692300000000     0.064100000000     0.216400000000     0          
C395     C      0.765200000000     0.156600000000     0.220090000000     0          
H396     H      0.739200000000     0.174300000000     0.228600000000     0          
C397     C      0.830840000000     0.196540000000     0.214880000000     0          
H398     H      0.849400000000     0.241500000000     0.219200000000     0          
C399     C      0.869300000000     0.171200000000     0.203450000000     0          
C400     C      0.841370000000     0.105260000000     0.196050000000     0          
H401     H      0.867400000000     0.087600000000     0.187700000000     0          
C402     C      0.533570000000     0.944850000000     0.080330000000     0          
C403     C      0.580130000000     0.969030000000     0.112830000000     0          
H404     H      0.581100000000     0.941300000000     0.134800000000     0          
C405     C      0.625500000000     0.033900000000     0.113350000000     0          
H406     H      0.658400000000     0.050600000000     0.135200000000     0          
C407     C      0.622700000000     0.074000000000     0.081890000000     0          
H408     H      0.652200000000     0.118800000000     0.083200000000     0          
C409     C      0.578200000000     0.050000000000     0.049160000000     0          
H410     H      0.577700000000     0.077700000000     0.026900000000     0          
C411     C      0.533420000000     0.985320000000     0.047990000000     0          
H412     H      0.502500000000     0.968700000000     0.024900000000     0          
C413     C      0.483500000000     0.874760000000     0.079640000000     0          
C414     C      0.365990000000     0.773220000000     0.209360000000     0          
C415     C      0.186970000000     0.705460000000     0.942050000000     0          
C416     C      0.204200000000     0.766700000000     0.927330000000     0          
H417     H      0.246000000000     0.801400000000     0.933100000000     0          
C418     C      0.160900000000     0.777200000000     0.904400000000     0          
H419     H      0.173100000000     0.819100000000     0.894000000000     0          
C420     C      0.100000000000     0.727300000000     0.896400000000     0          
H421     H      0.070400000000     0.734600000000     0.880100000000     0          
C422     C      0.081900000000     0.667300000000     0.911800000000     0          
H423     H      0.039300000000     0.633200000000     0.906900000000     0          
C424     C      0.125000000000     0.655600000000     0.934450000000     0          
H425     H      0.112200000000     0.613600000000     0.944800000000     0          
C426     C      0.233310000000     0.693590000000     0.967170000000     0          
O427     O      0.319680000000     0.828150000000     0.040430000000     0          
N428     N      0.242960000000     0.855350000000     0.046300000000     0          
C429     C      0.262130000000     0.813170000000     0.042690000000     0          
H430     H      0.230600000000     0.769000000000     0.041800000000     0          
C431     C      0.174100000000     0.836000000000     0.049550000000     0          
H432     H      0.167800000000     0.854300000000     0.077200000000     0          
H433     H      0.163600000000     0.855600000000     0.024400000000     0          
C434     C      0.128700000000     0.766800000000     0.049370000000     0          
H435     H      0.084800000000     0.759200000000     0.051900000000     0          
H436     H      0.137800000000     0.746800000000     0.074500000000     0          
H437     H      0.133200000000     0.748200000000     0.021600000000     0          
C438     C      0.289200000000     0.924100000000     0.049210000000     0          
H439     H      0.332600000000     0.930100000000     0.054000000000     0          
H440     H      0.278600000000     0.942000000000     0.075300000000     0          
C441     C      0.290800000000     0.961500000000     0.008500000000     0          
H442     H      0.322900000000     0.006900000000     0.012600000000     0          
H443     H      0.248500000000     0.957300000000     0.004100000000     0          
H444     H      0.302000000000     0.944700000000     0.982500000000     0          
C445     C      0.380400000000     0.800900000000     0.253590000000     0          
C446     C      0.442700000000     0.837500000000     0.269300000000     0          
H447     H      0.478300000000     0.852000000000     0.249300000000     0          
C448     C      0.453600000000     0.853100000000     0.314100000000     0          
H449     H      0.496600000000     0.878300000000     0.325000000000     0          
C450     C      0.402100000000     0.832100000000     0.343160000000     0          
H451     H      0.409500000000     0.842800000000     0.374100000000     0          
C452     C      0.339700000000     0.795500000000     0.327400000000     0          
H453     H      0.304000000000     0.780900000000     0.347400000000     0          
C454     C      0.328800000000     0.779900000000     0.282600000000     0          
H455     H      0.285800000000     0.754600000000     0.271700000000     0          
Zr456    Zr     0.312280000000     0.574100000000     0.130680000000     0          
Zr457    Zr     0.403270000000     0.643580000000     0.034770000000     0          
O458     O      0.236430000000     0.477330000000     0.134460000000     0          
O459     O      0.140800000000     0.471440000000     0.143700000000     0          
O460     O      0.313340000000     0.585020000000     0.061490000000     0          
O461     O      0.415900000000     0.644390000000     0.107690000000     0          
H462     H      0.451400000000     0.642500000000     0.118800000000     0          
O463     O      0.353400000000     0.512910000000     0.109880000000     0          
O464     O      0.413890000000     0.558120000000     0.049240000000     0          
O465     O      0.372990000000     0.584060000000     0.186160000000     0          
O466     O      0.433630000000     0.690440000000     0.195510000000     0          
O467     O      0.455030000000     0.713420000000     0.977620000000     0          
O468     O      0.420580000000     0.785070000000     0.977180000000     0          
C469     C      0.061490000000     0.279790000000     0.185070000000     0          
C470     C      0.086370000000     0.343710000000     0.171720000000     0          
H471     H      0.058700000000     0.361000000000     0.168600000000     0          
C472     C      0.151590000000     0.381770000000     0.163120000000     0          
C473     C      0.192370000000     0.357370000000     0.168440000000     0          
H474     H      0.237000000000     0.384000000000     0.163100000000     0          
C475     C      0.168480000000     0.293870000000     0.181640000000     0          
C476     C      0.102790000000     0.255280000000     0.189420000000     0          
H477     H      0.086000000000     0.211700000000     0.197800000000     0          
C478     C      0.994290000000     0.241190000000     0.192920000000     0          
C479     C      0.937520000000     0.210420000000     0.198360000000     0          
C480     C      0.176640000000     0.448830000000     0.146390000000     0          
C481     C      0.211810000000     0.269610000000     0.187470000000     0          
C482     C      0.248700000000     0.250750000000     0.193320000000     0          
C483     C      0.290000000000     0.224660000000     0.200830000000     0          
C484     C      0.353900000000     0.262760000000     0.213000000000     0          
H485     H      0.371800000000     0.307700000000     0.216400000000     0          
C486     C      0.391400000000     0.234800000000     0.220090000000     0          
H487     H      0.435100000000     0.260800000000     0.228600000000     0          
C488     C      0.365700000000     0.169160000000     0.214880000000     0          
H489     H      0.392100000000     0.150600000000     0.219200000000     0          
C490     C      0.301900000000     0.130700000000     0.203450000000     0          
C491     C      0.263890000000     0.158630000000     0.196050000000     0          
H492     H      0.220200000000     0.132600000000     0.187700000000     0          
C493     C      0.411280000000     0.466430000000     0.080330000000     0          
C494     C      0.388900000000     0.419870000000     0.112830000000     0          
H495     H      0.360200000000     0.418900000000     0.134800000000     0          
C496     C      0.408400000000     0.374500000000     0.113350000000     0          
H497     H      0.392200000000     0.341600000000     0.135200000000     0          
C498     C      0.451300000000     0.377300000000     0.081890000000     0          
H499     H      0.466600000000     0.347800000000     0.083200000000     0          
C500     C      0.471800000000     0.421800000000     0.049160000000     0          
H501     H      0.500000000000     0.422300000000     0.026900000000     0          
C502     C      0.451900000000     0.466580000000     0.047990000000     0          
H503     H      0.466200000000     0.497500000000     0.024900000000     0          
C504     C      0.391260000000     0.516500000000     0.079640000000     0          
C505     C      0.407230000000     0.634010000000     0.209360000000     0          
C506     C      0.518490000000     0.813030000000     0.942050000000     0          
C507     C      0.562500000000     0.795800000000     0.927330000000     0          
H508     H      0.555400000000     0.754000000000     0.933100000000     0          
C509     C      0.616300000000     0.839100000000     0.904400000000     0          
H510     H      0.646000000000     0.826900000000     0.894000000000     0          
C511     C      0.627300000000     0.900000000000     0.896400000000     0          
H512     H      0.664200000000     0.929600000000     0.880100000000     0          
C513     C      0.585400000000     0.918100000000     0.911800000000     0          
H514     H      0.593900000000     0.960700000000     0.906900000000     0          
C515     C      0.530600000000     0.875000000000     0.934450000000     0          
H516     H      0.501400000000     0.887800000000     0.944800000000     0          
C517     C      0.460280000000     0.766690000000     0.967170000000     0          
O518     O      0.508470000000     0.680320000000     0.040430000000     0          
N519     N      0.612390000000     0.757040000000     0.046300000000     0          
C520     C      0.551040000000     0.737870000000     0.042690000000     0          
H521     H      0.538400000000     0.769400000000     0.041800000000     0          
C522     C      0.661900000000     0.825900000000     0.049550000000     0          
H523     H      0.686500000000     0.832200000000     0.077200000000     0          
H524     H      0.692000000000     0.836400000000     0.024400000000     0          
C525     C      0.638100000000     0.871300000000     0.049370000000     0          
H526     H      0.674400000000     0.915200000000     0.051900000000     0          
H527     H      0.609000000000     0.862200000000     0.074500000000     0          
H528     H      0.615000000000     0.866800000000     0.021600000000     0          
C529     C      0.634900000000     0.710800000000     0.049210000000     0          
H530     H      0.597500000000     0.667400000000     0.054000000000     0          
H531     H      0.663400000000     0.721400000000     0.075300000000     0          
C532     C      0.670700000000     0.709200000000     0.008500000000     0          
H533     H      0.684000000000     0.677100000000     0.012600000000     0          
H534     H      0.708800000000     0.751500000000     0.004100000000     0          
H535     H      0.642700000000     0.698000000000     0.982500000000     0          
C536     C      0.420500000000     0.619600000000     0.253590000000     0          
C537     C      0.394800000000     0.557300000000     0.269300000000     0          
H538     H      0.373700000000     0.521700000000     0.249300000000     0          
C539     C      0.399500000000     0.546400000000     0.314100000000     0          
H540     H      0.381700000000     0.503400000000     0.325000000000     0          
C541     C      0.430000000000     0.597900000000     0.343160000000     0          
H542     H      0.433300000000     0.590500000000     0.374100000000     0          
C543     C      0.455800000000     0.660300000000     0.327400000000     0          
H544     H      0.476900000000     0.696000000000     0.347400000000     0          
C545     C      0.451100000000     0.671200000000     0.282600000000     0          
H546     H      0.468800000000     0.714200000000     0.271700000000     0          
Zr547    Zr     0.312280000000     0.738180000000     0.630680000000     0          
Zr548    Zr     0.403270000000     0.759690000000     0.534770000000     0          
O549     O      0.236430000000     0.759100000000     0.634460000000     0          
O550     O      0.140800000000     0.669360000000     0.643700000000     0          
O551     O      0.313340000000     0.728320000000     0.561490000000     0          
O552     O      0.415900000000     0.771510000000     0.607690000000     0          
H553     H      0.451400000000     0.808900000000     0.618800000000     0          
O554     O      0.353400000000     0.840490000000     0.609880000000     0          
O555     O      0.413890000000     0.855770000000     0.549240000000     0          
O556     O      0.372990000000     0.788930000000     0.686160000000     0          
O557     O      0.433630000000     0.743190000000     0.695510000000     0          
O558     O      0.455030000000     0.741610000000     0.477620000000     0          
O559     O      0.420580000000     0.635510000000     0.477180000000     0          
C560     C      0.061490000000     0.781700000000     0.685070000000     0          
C561     C      0.086370000000     0.742660000000     0.671720000000     0          
H562     H      0.058700000000     0.697700000000     0.668600000000     0          
C563     C      0.151590000000     0.769820000000     0.663120000000     0          
C564     C      0.192370000000     0.835000000000     0.668440000000     0          
H565     H      0.237000000000     0.853000000000     0.663100000000     0          
C566     C      0.168480000000     0.874610000000     0.681640000000     0          
C567     C      0.102790000000     0.847510000000     0.689420000000     0          
H568     H      0.086000000000     0.874300000000     0.697800000000     0          
C569     C      0.994290000000     0.753100000000     0.692920000000     0          
C570     C      0.937520000000     0.727100000000     0.698360000000     0          
C571     C      0.176640000000     0.727810000000     0.646390000000     0          
C572     C      0.211810000000     0.942200000000     0.687470000000     0          
C573     C      0.248700000000     0.997950000000     0.693320000000     0          
C574     C      0.290000000000     0.065340000000     0.700830000000     0          
C575     C      0.353900000000     0.091140000000     0.713000000000     0          
H576     H      0.371800000000     0.064100000000     0.716400000000     0          
C577     C      0.391400000000     0.156600000000     0.720090000000     0          
H578     H      0.435100000000     0.174300000000     0.728600000000     0          
C579     C      0.365700000000     0.196540000000     0.714880000000     0          
H580     H      0.392100000000     0.241500000000     0.719200000000     0          
C581     C      0.301900000000     0.171200000000     0.703450000000     0          
C582     C      0.263890000000     0.105260000000     0.696050000000     0          
H583     H      0.220200000000     0.087600000000     0.687700000000     0          
C584     C      0.411280000000     0.944850000000     0.580330000000     0          
C585     C      0.388900000000     0.969030000000     0.612830000000     0          
H586     H      0.360200000000     0.941300000000     0.634800000000     0          
C587     C      0.408400000000     0.033900000000     0.613350000000     0          
H588     H      0.392200000000     0.050600000000     0.635200000000     0          
C589     C      0.451300000000     0.074000000000     0.581890000000     0          
H590     H      0.466600000000     0.118800000000     0.583200000000     0          
C591     C      0.471800000000     0.050000000000     0.549160000000     0          
H592     H      0.500000000000     0.077700000000     0.526900000000     0          
C593     C      0.451900000000     0.985320000000     0.547990000000     0          
H594     H      0.466200000000     0.968700000000     0.524900000000     0          
C595     C      0.391260000000     0.874760000000     0.579640000000     0          
C596     C      0.407230000000     0.773220000000     0.709360000000     0          
C597     C      0.518490000000     0.705460000000     0.442050000000     0          
C598     C      0.562500000000     0.766700000000     0.427330000000     0          
H599     H      0.555400000000     0.801400000000     0.433100000000     0          
C600     C      0.616300000000     0.777200000000     0.404400000000     0          
H601     H      0.646000000000     0.819100000000     0.394000000000     0          
C602     C      0.627300000000     0.727300000000     0.396400000000     0          
H603     H      0.664200000000     0.734600000000     0.380100000000     0          
C604     C      0.585400000000     0.667300000000     0.411800000000     0          
H605     H      0.593900000000     0.633200000000     0.406900000000     0          
C606     C      0.530600000000     0.655600000000     0.434450000000     0          
H607     H      0.501400000000     0.613600000000     0.444800000000     0          
C608     C      0.460280000000     0.693590000000     0.467170000000     0          
O609     O      0.508470000000     0.828150000000     0.540430000000     0          
N610     N      0.612390000000     0.855350000000     0.546300000000     0          
C611     C      0.551040000000     0.813170000000     0.542690000000     0          
H612     H      0.538400000000     0.769000000000     0.541800000000     0          
C613     C      0.661900000000     0.836000000000     0.549550000000     0          
H614     H      0.686500000000     0.854300000000     0.577200000000     0          
H615     H      0.692000000000     0.855600000000     0.524400000000     0          
C616     C      0.638100000000     0.766800000000     0.549370000000     0          
H617     H      0.674400000000     0.759200000000     0.551900000000     0          
H618     H      0.609000000000     0.746800000000     0.574500000000     0          
H619     H      0.615000000000     0.748200000000     0.521600000000     0          
C620     C      0.634900000000     0.924100000000     0.549210000000     0          
H621     H      0.597500000000     0.930100000000     0.554000000000     0          
H622     H      0.663400000000     0.942000000000     0.575300000000     0          
C623     C      0.670700000000     0.961500000000     0.508500000000     0          
H624     H      0.684000000000     0.006900000000     0.512600000000     0          
H625     H      0.708800000000     0.957300000000     0.504100000000     0          
H626     H      0.642700000000     0.944700000000     0.482500000000     0          
C627     C      0.420500000000     0.800900000000     0.753590000000     0          
C628     C      0.394800000000     0.837500000000     0.769300000000     0          
H629     H      0.373700000000     0.852000000000     0.749300000000     0          
C630     C      0.399500000000     0.853100000000     0.814100000000     0          
H631     H      0.381700000000     0.878300000000     0.825000000000     0          
C632     C      0.430000000000     0.832100000000     0.843160000000     0          
H633     H      0.433300000000     0.842800000000     0.874100000000     0          
C634     C      0.455800000000     0.795500000000     0.827400000000     0          
H635     H      0.476900000000     0.780900000000     0.847400000000     0          
C636     C      0.451100000000     0.779900000000     0.782600000000     0          
H637     H      0.468800000000     0.754600000000     0.771700000000     0          
Zr638    Zr     0.261820000000     0.574100000000     0.630680000000     0          
Zr639    Zr     0.240310000000     0.643580000000     0.534770000000     0          
O640     O      0.240900000000     0.477330000000     0.634460000000     0          
O641     O      0.330640000000     0.471440000000     0.643700000000     0          
O642     O      0.271680000000     0.585020000000     0.561490000000     0          
O643     O      0.228490000000     0.644390000000     0.607690000000     0          
H644     H      0.191100000000     0.642500000000     0.618800000000     0          
O645     O      0.159510000000     0.512910000000     0.609880000000     0          
O646     O      0.144230000000     0.558120000000     0.549240000000     0          
O647     O      0.211070000000     0.584060000000     0.686160000000     0          
O648     O      0.256810000000     0.690440000000     0.695510000000     0          
O649     O      0.258390000000     0.713420000000     0.477620000000     0          
O650     O      0.364490000000     0.785070000000     0.477180000000     0          
C651     C      0.218300000000     0.279790000000     0.685070000000     0          
C652     C      0.257340000000     0.343710000000     0.671720000000     0          
H653     H      0.302300000000     0.361000000000     0.668600000000     0          
C654     C      0.230180000000     0.381770000000     0.663120000000     0          
C655     C      0.165000000000     0.357370000000     0.668440000000     0          
H656     H      0.147000000000     0.384000000000     0.663100000000     0          
C657     C      0.125390000000     0.293870000000     0.681640000000     0          
C658     C      0.152490000000     0.255280000000     0.689420000000     0          
H659     H      0.125700000000     0.211700000000     0.697800000000     0          
C660     C      0.246900000000     0.241190000000     0.692920000000     0          
C661     C      0.272900000000     0.210420000000     0.698360000000     0          
C662     C      0.272190000000     0.448830000000     0.646390000000     0          
C663     C      0.057800000000     0.269610000000     0.687470000000     0          
C664     C      0.002050000000     0.250750000000     0.693320000000     0          
C665     C      0.934660000000     0.224660000000     0.700830000000     0          
C666     C      0.908860000000     0.262760000000     0.713000000000     0          
H667     H      0.935900000000     0.307700000000     0.716400000000     0          
C668     C      0.843400000000     0.234800000000     0.720090000000     0          
H669     H      0.825700000000     0.260800000000     0.728600000000     0          
C670     C      0.803460000000     0.169160000000     0.714880000000     0          
H671     H      0.758500000000     0.150600000000     0.719200000000     0          
C672     C      0.828800000000     0.130700000000     0.703450000000     0          
C673     C      0.894740000000     0.158630000000     0.696050000000     0          
H674     H      0.912400000000     0.132600000000     0.687700000000     0          
C675     C      0.055150000000     0.466430000000     0.580330000000     0          
C676     C      0.030970000000     0.419870000000     0.612830000000     0          
H677     H      0.058700000000     0.418900000000     0.634800000000     0          
C678     C      0.966100000000     0.374500000000     0.613350000000     0          
H679     H      0.949400000000     0.341600000000     0.635200000000     0          
C680     C      0.926000000000     0.377300000000     0.581890000000     0          
H681     H      0.881200000000     0.347800000000     0.583200000000     0          
C682     C      0.950000000000     0.421800000000     0.549160000000     0          
H683     H      0.922300000000     0.422300000000     0.526900000000     0          
C684     C      0.014680000000     0.466580000000     0.547990000000     0          
H685     H      0.031300000000     0.497500000000     0.524900000000     0          
C686     C      0.125240000000     0.516500000000     0.579640000000     0          
C687     C      0.214300000000     0.624500000000     0.760140000000     0          
C688     C      0.177200000000     0.562200000000     0.776050000000     0          
H689     H      0.158400000000     0.526800000000     0.755700000000     0          
C690     C      0.167600000000     0.551300000000     0.821430000000     0          
H691     H      0.142000000000     0.508300000000     0.832400000000     0          
C692     C      0.194900000000     0.602600000000     0.850880000000     0          
H693     H      0.188200000000     0.595000000000     0.882200000000     0          
C694     C      0.231900000000     0.664800000000     0.834990000000     0          
H695     H      0.250700000000     0.700200000000     0.855300000000     0          
C696     C      0.241600000000     0.675800000000     0.789600000000     0          
H697     H      0.267100000000     0.718700000000     0.778600000000     0          
C698     C      0.226780000000     0.634010000000     0.709360000000     0          
C699     C      0.294540000000     0.813030000000     0.442050000000     0          
C700     C      0.233300000000     0.795800000000     0.427330000000     0          
H701     H      0.198600000000     0.754000000000     0.433100000000     0          
C702     C      0.222800000000     0.839100000000     0.404400000000     0          
H703     H      0.180900000000     0.826900000000     0.394000000000     0          
C704     C      0.272700000000     0.900000000000     0.396400000000     0          
H705     H      0.265400000000     0.929600000000     0.380100000000     0          
C706     C      0.332700000000     0.918100000000     0.411800000000     0          
H707     H      0.366800000000     0.960700000000     0.406900000000     0          
C708     C      0.344400000000     0.875000000000     0.434450000000     0          
H709     H      0.386400000000     0.887800000000     0.444800000000     0          
C710     C      0.306410000000     0.766690000000     0.467170000000     0          
O711     O      0.171850000000     0.680320000000     0.540430000000     0          
N712     N      0.144650000000     0.757040000000     0.546300000000     0          
C713     C      0.186830000000     0.737870000000     0.542690000000     0          
H714     H      0.231000000000     0.769400000000     0.541800000000     0          
C715     C      0.164000000000     0.825900000000     0.549550000000     0          
H716     H      0.145700000000     0.832200000000     0.577200000000     0          
H717     H      0.144400000000     0.836400000000     0.524400000000     0          
C718     C      0.233200000000     0.871300000000     0.549370000000     0          
H719     H      0.240800000000     0.915200000000     0.551900000000     0          
H720     H      0.253200000000     0.862200000000     0.574500000000     0          
H721     H      0.251800000000     0.866800000000     0.521600000000     0          
C722     C      0.075900000000     0.710800000000     0.549210000000     0          
H723     H      0.069900000000     0.667400000000     0.554000000000     0          
H724     H      0.058000000000     0.721400000000     0.575300000000     0          
C725     C      0.038500000000     0.709200000000     0.508500000000     0          
H726     H      0.993100000000     0.677100000000     0.512600000000     0          
H727     H      0.042700000000     0.751500000000     0.504100000000     0          
H728     H      0.055300000000     0.698000000000     0.482500000000     0          
Zr729    Zr     0.425900000000     0.687720000000     0.630680000000     0          
Zr730    Zr     0.356420000000     0.596730000000     0.534770000000     0          
O731     O      0.522670000000     0.763570000000     0.634460000000     0          
O732     O      0.528560000000     0.859200000000     0.643700000000     0          
O733     O      0.414980000000     0.686660000000     0.561490000000     0          
O734     O      0.355610000000     0.584100000000     0.607690000000     0          
H735     H      0.357500000000     0.548600000000     0.618800000000     0          
O736     O      0.487090000000     0.646600000000     0.609880000000     0          
O737     O      0.441880000000     0.586110000000     0.549240000000     0          
O738     O      0.415940000000     0.627010000000     0.686160000000     0          
O739     O      0.309560000000     0.566370000000     0.695510000000     0          
O740     O      0.286580000000     0.544970000000     0.477620000000     0          
O741     O      0.214930000000     0.579420000000     0.477180000000     0          
C742     C      0.720210000000     0.938510000000     0.685070000000     0          
C743     C      0.656290000000     0.913630000000     0.671720000000     0          
H744     H      0.639000000000     0.941300000000     0.668600000000     0          
C745     C      0.618230000000     0.848410000000     0.663120000000     0          
C746     C      0.642630000000     0.807630000000     0.668440000000     0          
H747     H      0.616000000000     0.763000000000     0.663100000000     0          
C748     C      0.706130000000     0.831520000000     0.681640000000     0          
C749     C      0.744720000000     0.897210000000     0.689420000000     0          
H750     H      0.788300000000     0.914000000000     0.697800000000     0          
C751     C      0.758810000000     0.005710000000     0.692920000000     0          
C752     C      0.789580000000     0.062480000000     0.698360000000     0          
C753     C      0.551170000000     0.823360000000     0.646390000000     0          
C754     C      0.730390000000     0.788190000000     0.687470000000     0          
C755     C      0.749250000000     0.751300000000     0.693320000000     0          
C756     C      0.775340000000     0.710000000000     0.700830000000     0          
C757     C      0.737240000000     0.646100000000     0.713000000000     0          
H758     H      0.692300000000     0.628200000000     0.716400000000     0          
C759     C      0.765200000000     0.608600000000     0.720090000000     0          
H760     H      0.739200000000     0.564900000000     0.728600000000     0          
C761     C      0.830840000000     0.634300000000     0.714880000000     0          
H762     H      0.849400000000     0.607900000000     0.719200000000     0          
C763     C      0.869300000000     0.698100000000     0.703450000000     0          
C764     C      0.841370000000     0.736110000000     0.696050000000     0          
H765     H      0.867400000000     0.779800000000     0.687700000000     0          
C766     C      0.533570000000     0.588720000000     0.580330000000     0          
C767     C      0.580130000000     0.611100000000     0.612830000000     0          
H768     H      0.581100000000     0.639800000000     0.634800000000     0          
C769     C      0.625500000000     0.591600000000     0.613350000000     0          
H770     H      0.658400000000     0.607800000000     0.635200000000     0          
C771     C      0.622700000000     0.548700000000     0.581890000000     0          
H772     H      0.652200000000     0.533400000000     0.583200000000     0          
C773     C      0.578200000000     0.528200000000     0.549160000000     0          
H774     H      0.577700000000     0.500000000000     0.526900000000     0          
C775     C      0.533420000000     0.548100000000     0.547990000000     0          
H776     H      0.502500000000     0.533800000000     0.524900000000     0          
C777     C      0.483500000000     0.608740000000     0.579640000000     0          
C778     C      0.375500000000     0.589800000000     0.760140000000     0          
C779     C      0.437800000000     0.615000000000     0.776050000000     0          
H780     H      0.473200000000     0.631600000000     0.755700000000     0          
C781     C      0.448700000000     0.616300000000     0.821430000000     0          
H782     H      0.491700000000     0.633700000000     0.832400000000     0          
C783     C      0.397400000000     0.592300000000     0.850880000000     0          
H784     H      0.405000000000     0.593200000000     0.882200000000     0          
C785     C      0.335200000000     0.567100000000     0.834990000000     0          
H786     H      0.299800000000     0.550500000000     0.855300000000     0          
C787     C      0.324200000000     0.565800000000     0.789600000000     0          
H788     H      0.281300000000     0.548400000000     0.778600000000     0          
C789     C      0.365990000000     0.592770000000     0.709360000000     0          
C790     C      0.186970000000     0.481510000000     0.442050000000     0          
C791     C      0.204200000000     0.437500000000     0.427330000000     0          
H792     H      0.246000000000     0.444600000000     0.433100000000     0          
C793     C      0.160900000000     0.383700000000     0.404400000000     0          
H794     H      0.173100000000     0.354000000000     0.394000000000     0          
C795     C      0.100000000000     0.372700000000     0.396400000000     0          
H796     H      0.070400000000     0.335800000000     0.380100000000     0          
C797     C      0.081900000000     0.414600000000     0.411800000000     0          
H798     H      0.039300000000     0.406100000000     0.406900000000     0          
C799     C      0.125000000000     0.469400000000     0.434450000000     0          
H800     H      0.112200000000     0.498600000000     0.444800000000     0          
C801     C      0.233310000000     0.539720000000     0.467170000000     0          
O802     O      0.319680000000     0.491530000000     0.540430000000     0          
N803     N      0.242960000000     0.387610000000     0.546300000000     0          
C804     C      0.262130000000     0.448960000000     0.542690000000     0          
H805     H      0.230600000000     0.461600000000     0.541800000000     0          
C806     C      0.174100000000     0.338100000000     0.549550000000     0          
H807     H      0.167800000000     0.313500000000     0.577200000000     0          
H808     H      0.163600000000     0.308000000000     0.524400000000     0          
C809     C      0.128700000000     0.361900000000     0.549370000000     0          
H810     H      0.084800000000     0.325600000000     0.551900000000     0          
H811     H      0.137800000000     0.391000000000     0.574500000000     0          
H812     H      0.133200000000     0.385000000000     0.521600000000     0          
C813     C      0.289200000000     0.365100000000     0.549210000000     0          
H814     H      0.332600000000     0.402500000000     0.554000000000     0          
H815     H      0.278600000000     0.336600000000     0.575300000000     0          
C816     C      0.290800000000     0.329300000000     0.508500000000     0          
H817     H      0.322900000000     0.316000000000     0.512600000000     0          
H818     H      0.248500000000     0.291200000000     0.504100000000     0          
H819     H      0.302000000000     0.357300000000     0.482500000000     0          
Zr820    Zr     0.738180000000     0.312280000000     0.869320000000     0          
Zr821    Zr     0.759690000000     0.403270000000     0.965230000000     0          
O822     O      0.759100000000     0.236430000000     0.865540000000     0          
O823     O      0.669360000000     0.140800000000     0.856300000000     0          
O824     O      0.728320000000     0.313340000000     0.938510000000     0          
O825     O      0.771510000000     0.415900000000     0.892310000000     0          
H826     H      0.808900000000     0.451400000000     0.881200000000     0          
O827     O      0.840490000000     0.353400000000     0.890120000000     0          
O828     O      0.855770000000     0.413890000000     0.950760000000     0          
O829     O      0.788930000000     0.372990000000     0.813840000000     0          
O830     O      0.743190000000     0.433630000000     0.804490000000     0          
O831     O      0.741610000000     0.455030000000     0.022380000000     0          
O832     O      0.635510000000     0.420580000000     0.022820000000     0          
C833     C      0.781700000000     0.061490000000     0.814930000000     0          
C834     C      0.742660000000     0.086370000000     0.828280000000     0          
H835     H      0.697700000000     0.058700000000     0.831400000000     0          
C836     C      0.769820000000     0.151590000000     0.836880000000     0          
C837     C      0.835000000000     0.192370000000     0.831560000000     0          
H838     H      0.853000000000     0.237000000000     0.836900000000     0          
C839     C      0.874610000000     0.168480000000     0.818360000000     0          
C840     C      0.847510000000     0.102790000000     0.810580000000     0          
H841     H      0.874300000000     0.086000000000     0.802200000000     0          
C842     C      0.753100000000     0.994290000000     0.807080000000     0          
C843     C      0.727100000000     0.937520000000     0.801640000000     0          
C844     C      0.727810000000     0.176640000000     0.853610000000     0          
C845     C      0.942200000000     0.211810000000     0.812530000000     0          
C846     C      0.997950000000     0.248700000000     0.806680000000     0          
C847     C      0.065340000000     0.290000000000     0.799170000000     0          
C848     C      0.091140000000     0.353900000000     0.787000000000     0          
H849     H      0.064100000000     0.371800000000     0.783600000000     0          
C850     C      0.156600000000     0.391400000000     0.779910000000     0          
H851     H      0.174300000000     0.435100000000     0.771400000000     0          
C852     C      0.196540000000     0.365700000000     0.785120000000     0          
H853     H      0.241500000000     0.392100000000     0.780800000000     0          
C854     C      0.171200000000     0.301900000000     0.796550000000     0          
C855     C      0.105260000000     0.263890000000     0.803950000000     0          
H856     H      0.087600000000     0.220200000000     0.812300000000     0          
C857     C      0.944850000000     0.411280000000     0.919670000000     0          
C858     C      0.969030000000     0.388900000000     0.887170000000     0          
H859     H      0.941300000000     0.360200000000     0.865200000000     0          
C860     C      0.033900000000     0.408400000000     0.886650000000     0          
H861     H      0.050600000000     0.392200000000     0.864800000000     0          
C862     C      0.074000000000     0.451300000000     0.918110000000     0          
H863     H      0.118800000000     0.466600000000     0.916800000000     0          
C864     C      0.050000000000     0.471800000000     0.950840000000     0          
H865     H      0.077700000000     0.500000000000     0.973100000000     0          
C866     C      0.985320000000     0.451900000000     0.952010000000     0          
H867     H      0.968700000000     0.466200000000     0.975100000000     0          
C868     C      0.874760000000     0.391260000000     0.920360000000     0          
C869     C      0.773220000000     0.407230000000     0.790640000000     0          
C870     C      0.705460000000     0.518490000000     0.057950000000     0          
C871     C      0.766700000000     0.562500000000     0.072670000000     0          
H872     H      0.801400000000     0.555400000000     0.066900000000     0          
C873     C      0.777200000000     0.616300000000     0.095600000000     0          
H874     H      0.819100000000     0.646000000000     0.106000000000     0          
C875     C      0.727300000000     0.627300000000     0.103600000000     0          
H876     H      0.734600000000     0.664200000000     0.119900000000     0          
C877     C      0.667300000000     0.585400000000     0.088200000000     0          
H878     H      0.633200000000     0.593900000000     0.093100000000     0          
C879     C      0.655600000000     0.530600000000     0.065550000000     0          
H880     H      0.613600000000     0.501400000000     0.055200000000     0          
C881     C      0.693590000000     0.460280000000     0.032830000000     0          
O882     O      0.828150000000     0.508470000000     0.959570000000     0          
N883     N      0.855350000000     0.612390000000     0.953700000000     0          
C884     C      0.813170000000     0.551040000000     0.957310000000     0          
H885     H      0.769000000000     0.538400000000     0.958200000000     0          
C886     C      0.836000000000     0.661900000000     0.950450000000     0          
H887     H      0.854300000000     0.686500000000     0.922800000000     0          
H888     H      0.855600000000     0.692000000000     0.975600000000     0          
C889     C      0.766800000000     0.638100000000     0.950630000000     0          
H890     H      0.759200000000     0.674400000000     0.948100000000     0          
H891     H      0.746800000000     0.609000000000     0.925500000000     0          
H892     H      0.748200000000     0.615000000000     0.978400000000     0          
C893     C      0.924100000000     0.634900000000     0.950790000000     0          
H894     H      0.930100000000     0.597500000000     0.946000000000     0          
H895     H      0.942000000000     0.663400000000     0.924700000000     0          
C896     C      0.961500000000     0.670700000000     0.991500000000     0          
H897     H      0.006900000000     0.684000000000     0.987400000000     0          
H898     H      0.957300000000     0.708800000000     0.995900000000     0          
H899     H      0.944700000000     0.642700000000     0.017500000000     0          
C900     C      0.800900000000     0.420500000000     0.746410000000     0          
C901     C      0.837500000000     0.394800000000     0.730700000000     0          
H902     H      0.852000000000     0.373700000000     0.750700000000     0          
C903     C      0.853100000000     0.399500000000     0.685900000000     0          
H904     H      0.878300000000     0.381700000000     0.675000000000     0          
C905     C      0.832100000000     0.430000000000     0.656840000000     0          
H906     H      0.842800000000     0.433300000000     0.625900000000     0          
C907     C      0.795500000000     0.455800000000     0.672600000000     0          
H908     H      0.780900000000     0.476900000000     0.652600000000     0          
C909     C      0.779900000000     0.451100000000     0.717400000000     0          
H910     H      0.754600000000     0.468800000000     0.728300000000     0          
Zr911    Zr     0.574100000000     0.261820000000     0.869320000000     0          
Zr912    Zr     0.643580000000     0.240310000000     0.965230000000     0          
O913     O      0.477330000000     0.240900000000     0.865540000000     0          
O914     O      0.471440000000     0.330640000000     0.856300000000     0          
O915     O      0.585020000000     0.271680000000     0.938510000000     0          
O916     O      0.644390000000     0.228490000000     0.892310000000     0          
H917     H      0.642500000000     0.191100000000     0.881200000000     0          
O918     O      0.512910000000     0.159510000000     0.890120000000     0          
O919     O      0.558120000000     0.144230000000     0.950760000000     0          
O920     O      0.584060000000     0.211070000000     0.813840000000     0          
O921     O      0.690440000000     0.256810000000     0.804490000000     0          
O922     O      0.713420000000     0.258390000000     0.022380000000     0          
O923     O      0.785070000000     0.364490000000     0.022820000000     0          
C924     C      0.279790000000     0.218300000000     0.814930000000     0          
C925     C      0.343710000000     0.257340000000     0.828280000000     0          
H926     H      0.361000000000     0.302300000000     0.831400000000     0          
C927     C      0.381770000000     0.230180000000     0.836880000000     0          
C928     C      0.357370000000     0.165000000000     0.831560000000     0          
H929     H      0.384000000000     0.147000000000     0.836900000000     0          
C930     C      0.293870000000     0.125390000000     0.818360000000     0          
C931     C      0.255280000000     0.152490000000     0.810580000000     0          
H932     H      0.211700000000     0.125700000000     0.802200000000     0          
C933     C      0.241190000000     0.246900000000     0.807080000000     0          
C934     C      0.210420000000     0.272900000000     0.801640000000     0          
C935     C      0.448830000000     0.272190000000     0.853610000000     0          
C936     C      0.269610000000     0.057800000000     0.812530000000     0          
C937     C      0.250750000000     0.002050000000     0.806680000000     0          
C938     C      0.224660000000     0.934660000000     0.799170000000     0          
C939     C      0.262760000000     0.908860000000     0.787000000000     0          
H940     H      0.307700000000     0.935900000000     0.783600000000     0          
C941     C      0.234800000000     0.843400000000     0.779910000000     0          
H942     H      0.260800000000     0.825700000000     0.771400000000     0          
C943     C      0.169160000000     0.803460000000     0.785120000000     0          
H944     H      0.150600000000     0.758500000000     0.780800000000     0          
C945     C      0.130700000000     0.828800000000     0.796550000000     0          
C946     C      0.158630000000     0.894740000000     0.803950000000     0          
H947     H      0.132600000000     0.912400000000     0.812300000000     0          
C948     C      0.466430000000     0.055150000000     0.919670000000     0          
C949     C      0.419870000000     0.030970000000     0.887170000000     0          
H950     H      0.418900000000     0.058700000000     0.865200000000     0          
C951     C      0.374500000000     0.966100000000     0.886650000000     0          
H952     H      0.341600000000     0.949400000000     0.864800000000     0          
C953     C      0.377300000000     0.926000000000     0.918110000000     0          
H954     H      0.347800000000     0.881200000000     0.916800000000     0          
C955     C      0.421800000000     0.950000000000     0.950840000000     0          
H956     H      0.422300000000     0.922300000000     0.973100000000     0          
C957     C      0.466580000000     0.014680000000     0.952010000000     0          
H958     H      0.497500000000     0.031300000000     0.975100000000     0          
C959     C      0.516500000000     0.125240000000     0.920360000000     0          
C960     C      0.624500000000     0.214300000000     0.739860000000     0          
C961     C      0.562200000000     0.177200000000     0.723950000000     0          
H962     H      0.526800000000     0.158400000000     0.744300000000     0          
C963     C      0.551300000000     0.167600000000     0.678570000000     0          
H964     H      0.508300000000     0.142000000000     0.667600000000     0          
C965     C      0.602600000000     0.194900000000     0.649120000000     0          
H966     H      0.595000000000     0.188200000000     0.617800000000     0          
C967     C      0.664800000000     0.231900000000     0.665010000000     0          
H968     H      0.700200000000     0.250700000000     0.644700000000     0          
C969     C      0.675800000000     0.241600000000     0.710400000000     0          
H970     H      0.718700000000     0.267100000000     0.721400000000     0          
C971     C      0.634010000000     0.226780000000     0.790640000000     0          
C972     C      0.813030000000     0.294540000000     0.057950000000     0          
C973     C      0.795800000000     0.233300000000     0.072670000000     0          
H974     H      0.754000000000     0.198600000000     0.066900000000     0          
C975     C      0.839100000000     0.222800000000     0.095600000000     0          
H976     H      0.826900000000     0.180900000000     0.106000000000     0          
C977     C      0.900000000000     0.272700000000     0.103600000000     0          
H978     H      0.929600000000     0.265400000000     0.119900000000     0          
C979     C      0.918100000000     0.332700000000     0.088200000000     0          
H980     H      0.960700000000     0.366800000000     0.093100000000     0          
C981     C      0.875000000000     0.344400000000     0.065550000000     0          
H982     H      0.887800000000     0.386400000000     0.055200000000     0          
C983     C      0.766690000000     0.306410000000     0.032830000000     0          
O984     O      0.680320000000     0.171850000000     0.959570000000     0          
N985     N      0.757040000000     0.144650000000     0.953700000000     0          
C986     C      0.737870000000     0.186830000000     0.957310000000     0          
H987     H      0.769400000000     0.231000000000     0.958200000000     0          
C988     C      0.825900000000     0.164000000000     0.950450000000     0          
H989     H      0.832200000000     0.145700000000     0.922800000000     0          
H990     H      0.836400000000     0.144400000000     0.975600000000     0          
C991     C      0.871300000000     0.233200000000     0.950630000000     0          
H992     H      0.915200000000     0.240800000000     0.948100000000     0          
H993     H      0.862200000000     0.253200000000     0.925500000000     0          
H994     H      0.866800000000     0.251800000000     0.978400000000     0          
C995     C      0.710800000000     0.075900000000     0.950790000000     0          
H996     H      0.667400000000     0.069900000000     0.946000000000     0          
H997     H      0.721400000000     0.058000000000     0.924700000000     0          
C998     C      0.709200000000     0.038500000000     0.991500000000     0          
H999     H      0.677100000000     0.993100000000     0.987400000000     0          
H1000    H      0.751500000000     0.042700000000     0.995900000000     0          
H1001    H      0.698000000000     0.055300000000     0.017500000000     0          
Zr1002   Zr     0.687720000000     0.425900000000     0.869320000000     0          
Zr1003   Zr     0.596730000000     0.356420000000     0.965230000000     0          
O1004    O      0.763570000000     0.522670000000     0.865540000000     0          
O1005    O      0.859200000000     0.528560000000     0.856300000000     0          
O1006    O      0.686660000000     0.414980000000     0.938510000000     0          
O1007    O      0.584100000000     0.355610000000     0.892310000000     0          
H1008    H      0.548600000000     0.357500000000     0.881200000000     0          
O1009    O      0.646600000000     0.487090000000     0.890120000000     0          
O1010    O      0.586110000000     0.441880000000     0.950760000000     0          
O1011    O      0.627010000000     0.415940000000     0.813840000000     0          
O1012    O      0.566370000000     0.309560000000     0.804490000000     0          
O1013    O      0.544970000000     0.286580000000     0.022380000000     0          
O1014    O      0.579420000000     0.214930000000     0.022820000000     0          
C1015    C      0.938510000000     0.720210000000     0.814930000000     0          
C1016    C      0.913630000000     0.656290000000     0.828280000000     0          
H1017    H      0.941300000000     0.639000000000     0.831400000000     0          
C1018    C      0.848410000000     0.618230000000     0.836880000000     0          
C1019    C      0.807630000000     0.642630000000     0.831560000000     0          
H1020    H      0.763000000000     0.616000000000     0.836900000000     0          
C1021    C      0.831520000000     0.706130000000     0.818360000000     0          
C1022    C      0.897210000000     0.744720000000     0.810580000000     0          
H1023    H      0.914000000000     0.788300000000     0.802200000000     0          
C1024    C      0.005710000000     0.758810000000     0.807080000000     0          
C1025    C      0.062480000000     0.789580000000     0.801640000000     0          
C1026    C      0.823360000000     0.551170000000     0.853610000000     0          
C1027    C      0.788190000000     0.730390000000     0.812530000000     0          
C1028    C      0.751300000000     0.749250000000     0.806680000000     0          
C1029    C      0.710000000000     0.775340000000     0.799170000000     0          
C1030    C      0.646100000000     0.737240000000     0.787000000000     0          
H1031    H      0.628200000000     0.692300000000     0.783600000000     0          
C1032    C      0.608600000000     0.765200000000     0.779910000000     0          
H1033    H      0.564900000000     0.739200000000     0.771400000000     0          
C1034    C      0.634300000000     0.830840000000     0.785120000000     0          
H1035    H      0.607900000000     0.849400000000     0.780800000000     0          
C1036    C      0.698100000000     0.869300000000     0.796550000000     0          
C1037    C      0.736110000000     0.841370000000     0.803950000000     0          
H1038    H      0.779800000000     0.867400000000     0.812300000000     0          
C1039    C      0.588720000000     0.533570000000     0.919670000000     0          
C1040    C      0.611100000000     0.580130000000     0.887170000000     0          
H1041    H      0.639800000000     0.581100000000     0.865200000000     0          
C1042    C      0.591600000000     0.625500000000     0.886650000000     0          
H1043    H      0.607800000000     0.658400000000     0.864800000000     0          
C1044    C      0.548700000000     0.622700000000     0.918110000000     0          
H1045    H      0.533400000000     0.652200000000     0.916800000000     0          
C1046    C      0.528200000000     0.578200000000     0.950840000000     0          
H1047    H      0.500000000000     0.577700000000     0.973100000000     0          
C1048    C      0.548100000000     0.533420000000     0.952010000000     0          
H1049    H      0.533800000000     0.502500000000     0.975100000000     0          
C1050    C      0.608740000000     0.483500000000     0.920360000000     0          
C1051    C      0.589800000000     0.375500000000     0.739860000000     0          
C1052    C      0.615000000000     0.437800000000     0.723950000000     0          
H1053    H      0.631600000000     0.473200000000     0.744300000000     0          
C1054    C      0.616300000000     0.448700000000     0.678570000000     0          
H1055    H      0.633700000000     0.491700000000     0.667600000000     0          
C1056    C      0.592300000000     0.397400000000     0.649120000000     0          
H1057    H      0.593200000000     0.405000000000     0.617800000000     0          
C1058    C      0.567100000000     0.335200000000     0.665010000000     0          
H1059    H      0.550500000000     0.299800000000     0.644700000000     0          
C1060    C      0.565800000000     0.324200000000     0.710400000000     0          
H1061    H      0.548400000000     0.281300000000     0.721400000000     0          
C1062    C      0.592770000000     0.365990000000     0.790640000000     0          
C1063    C      0.481510000000     0.186970000000     0.057950000000     0          
C1064    C      0.437500000000     0.204200000000     0.072670000000     0          
H1065    H      0.444600000000     0.246000000000     0.066900000000     0          
C1066    C      0.383700000000     0.160900000000     0.095600000000     0          
H1067    H      0.354000000000     0.173100000000     0.106000000000     0          
C1068    C      0.372700000000     0.100000000000     0.103600000000     0          
H1069    H      0.335800000000     0.070400000000     0.119900000000     0          
C1070    C      0.414600000000     0.081900000000     0.088200000000     0          
H1071    H      0.406100000000     0.039300000000     0.093100000000     0          
C1072    C      0.469400000000     0.125000000000     0.065550000000     0          
H1073    H      0.498600000000     0.112200000000     0.055200000000     0          
C1074    C      0.539720000000     0.233310000000     0.032830000000     0          
O1075    O      0.491530000000     0.319680000000     0.959570000000     0          
N1076    N      0.387610000000     0.242960000000     0.953700000000     0          
C1077    C      0.448960000000     0.262130000000     0.957310000000     0          
H1078    H      0.461600000000     0.230600000000     0.958200000000     0          
C1079    C      0.338100000000     0.174100000000     0.950450000000     0          
H1080    H      0.313500000000     0.167800000000     0.922800000000     0          
H1081    H      0.308000000000     0.163600000000     0.975600000000     0          
C1082    C      0.361900000000     0.128700000000     0.950630000000     0          
H1083    H      0.325600000000     0.084800000000     0.948100000000     0          
H1084    H      0.391000000000     0.137800000000     0.925500000000     0          
H1085    H      0.385000000000     0.133200000000     0.978400000000     0          
C1086    C      0.365100000000     0.289200000000     0.950790000000     0          
H1087    H      0.402500000000     0.332600000000     0.946000000000     0          
H1088    H      0.336600000000     0.278600000000     0.924700000000     0          
C1089    C      0.329300000000     0.290800000000     0.991500000000     0          
H1090    H      0.316000000000     0.322900000000     0.987400000000     0          
H1091    H      0.291200000000     0.248500000000     0.995900000000     0          
H1092    H      0.357300000000     0.302000000000     0.017500000000     0          
O1093    O      0.666670000000     0.333330000000     0.358580000000     0          
O1094    O      0.666670000000     0.333330000000     0.496940000000     0          
H1095    H      0.666670000000     0.333330000000     0.528300000000     0          
O1096    O      0.333330000000     0.666670000000     0.141420000000     0          
O1097    O      0.333330000000     0.666670000000     0.003060000000     0          
H1098    H      0.333330000000     0.666670000000     0.971700000000     0          
O1099    O      0.333330000000     0.666670000000     0.641420000000     0          
O1100    O      0.333330000000     0.666670000000     0.503060000000     0          
H1101    H      0.333330000000     0.666670000000     0.471700000000     0          
O1102    O      0.666670000000     0.333330000000     0.858580000000     0          
O1103    O      0.666670000000     0.333330000000     0.996940000000     0          
H1104    H      0.666670000000     0.333330000000     0.028300000000     0          


