data_IFUCAQ

_audit_creation_method RASPA-1.0
_audit_creation_date 2020-11-2
_audit_author_name 'Rocio Bueno-Perez'

_cell_length_a    38.65
_cell_length_b    38.65
_cell_length_c    38.65
_cell_angle_alpha 90
_cell_angle_beta  90
_cell_angle_gamma 90
_cell_volume      57736.2

_symmetry_cell_setting          cubic
_symmetry_space_group_name_Hall 'P 1'
_symmetry_space_group_name_H-M  'P 1'
_symmetry_Int_Tables_number     1

_symmetry_equiv_pos_as_xyz 'x,y,z'

loop_
_atom_site_label
_atom_site_type_symbol
_atom_site_fract_x
_atom_site_fract_y
_atom_site_fract_z
_atom_site_charge
O2       O      0.338700000000     0.033660000000     0.208480000000     0          
O3       O      0.331400000000     0.063100000000     0.258200000000     0          
C1       C      0.347600000000     0.058000000000     0.231400000000     0          
C2       C      0.374600000000     0.079200000000     0.220300000000     0          
C3       C      0.397900000000     0.076400000000     0.195100000000     0          
H1       H      0.397190000000     0.058730000000     0.178750000000     0          
Zr1      Zr     0.294580000000     0.000000000000     0.205420000000     0          
Zr2      Zr     0.282240000000     0.045500000000     0.282240000000     0          
O1       O      0.261800000000     0.000000000000     0.306400000000     0          
O6       O      0.272000000000     0.048200000000     0.228000000000     0          
S1       S      0.389580000000     0.110420000000     0.250140000000     0          
O2       O      0.966340000000     0.338700000000     0.208480000000     0          
O3       O      0.936900000000     0.331400000000     0.258200000000     0          
C1       C      0.942000000000     0.347600000000     0.231400000000     0          
C2       C      0.920800000000     0.374600000000     0.220300000000     0          
C3       C      0.923600000000     0.397900000000     0.195100000000     0          
H1       H      0.941270000000     0.397190000000     0.178750000000     0          
Zr1      Zr     0.000000000000     0.294580000000     0.205420000000     0          
Zr2      Zr     0.954500000000     0.282240000000     0.282240000000     0          
O1       O      0.000000000000     0.261800000000     0.306400000000     0          
O6       O      0.951800000000     0.272000000000     0.228000000000     0          
S1       S      0.889580000000     0.389580000000     0.250140000000     0          
O2       O      0.661300000000     0.966340000000     0.208480000000     0          
O3       O      0.668600000000     0.936900000000     0.258200000000     0          
C1       C      0.652400000000     0.942000000000     0.231400000000     0          
C2       C      0.625400000000     0.920800000000     0.220300000000     0          
C3       C      0.602100000000     0.923600000000     0.195100000000     0          
H1       H      0.602810000000     0.941270000000     0.178750000000     0          
Zr1      Zr     0.705420000000     0.000000000000     0.205420000000     0          
Zr2      Zr     0.717760000000     0.954500000000     0.282240000000     0          
O1       O      0.738200000000     0.000000000000     0.306400000000     0          
O6       O      0.728000000000     0.951800000000     0.228000000000     0          
S1       S      0.610420000000     0.889580000000     0.250140000000     0          
O2       O      0.033660000000     0.661300000000     0.208480000000     0          
O3       O      0.063100000000     0.668600000000     0.258200000000     0          
C1       C      0.058000000000     0.652400000000     0.231400000000     0          
C2       C      0.079200000000     0.625400000000     0.220300000000     0          
C3       C      0.076400000000     0.602100000000     0.195100000000     0          
H1       H      0.058730000000     0.602810000000     0.178750000000     0          
Zr1      Zr     0.000000000000     0.705420000000     0.205420000000     0          
Zr2      Zr     0.045500000000     0.717760000000     0.282240000000     0          
O1       O      0.000000000000     0.738200000000     0.306400000000     0          
O6       O      0.048200000000     0.728000000000     0.228000000000     0          
S1       S      0.110420000000     0.610420000000     0.250140000000     0          
O2       O      0.338700000000     0.966340000000     0.791520000000     0          
O3       O      0.331400000000     0.936900000000     0.741800000000     0          
C1       C      0.347600000000     0.942000000000     0.768600000000     0          
C2       C      0.374600000000     0.920800000000     0.779700000000     0          
C3       C      0.397900000000     0.923600000000     0.804900000000     0          
H1       H      0.397190000000     0.941270000000     0.821250000000     0          
Zr1      Zr     0.294580000000     0.000000000000     0.794580000000     0          
Zr2      Zr     0.282240000000     0.954500000000     0.717760000000     0          
O1       O      0.261800000000     0.000000000000     0.693600000000     0          
O6       O      0.272000000000     0.951800000000     0.772000000000     0          
S1       S      0.389580000000     0.889580000000     0.749860000000     0          
O2       O      0.033660000000     0.338700000000     0.791520000000     0          
O3       O      0.063100000000     0.331400000000     0.741800000000     0          
C1       C      0.058000000000     0.347600000000     0.768600000000     0          
C2       C      0.079200000000     0.374600000000     0.779700000000     0          
C3       C      0.076400000000     0.397900000000     0.804900000000     0          
H1       H      0.058730000000     0.397190000000     0.821250000000     0          
Zr1      Zr     0.000000000000     0.294580000000     0.794580000000     0          
Zr2      Zr     0.045500000000     0.282240000000     0.717760000000     0          
O1       O      0.000000000000     0.261800000000     0.693600000000     0          
O6       O      0.048200000000     0.272000000000     0.772000000000     0          
S1       S      0.110420000000     0.389580000000     0.749860000000     0          
O2       O      0.661300000000     0.033660000000     0.791520000000     0          
O3       O      0.668600000000     0.063100000000     0.741800000000     0          
C1       C      0.652400000000     0.058000000000     0.768600000000     0          
C2       C      0.625400000000     0.079200000000     0.779700000000     0          
C3       C      0.602100000000     0.076400000000     0.804900000000     0          
H1       H      0.602810000000     0.058730000000     0.821250000000     0          
Zr1      Zr     0.705420000000     0.000000000000     0.794580000000     0          
Zr2      Zr     0.717760000000     0.045500000000     0.717760000000     0          
O1       O      0.738200000000     0.000000000000     0.693600000000     0          
O6       O      0.728000000000     0.048200000000     0.772000000000     0          
S1       S      0.610420000000     0.110420000000     0.749860000000     0          
O2       O      0.966340000000     0.661300000000     0.791520000000     0          
O3       O      0.936900000000     0.668600000000     0.741800000000     0          
C1       C      0.942000000000     0.652400000000     0.768600000000     0          
C2       C      0.920800000000     0.625400000000     0.779700000000     0          
C3       C      0.923600000000     0.602100000000     0.804900000000     0          
H1       H      0.941270000000     0.602810000000     0.821250000000     0          
Zr1      Zr     0.000000000000     0.705420000000     0.794580000000     0          
Zr2      Zr     0.954500000000     0.717760000000     0.717760000000     0          
O1       O      0.000000000000     0.738200000000     0.693600000000     0          
O6       O      0.951800000000     0.728000000000     0.772000000000     0          
S1       S      0.889580000000     0.610420000000     0.749860000000     0          
O2       O      0.208480000000     0.338700000000     0.033660000000     0          
O3       O      0.258200000000     0.331400000000     0.063100000000     0          
C1       C      0.231400000000     0.347600000000     0.058000000000     0          
C2       C      0.220300000000     0.374600000000     0.079200000000     0          
C3       C      0.195100000000     0.397900000000     0.076400000000     0          
H1       H      0.178750000000     0.397190000000     0.058730000000     0          
Zr1      Zr     0.205420000000     0.294580000000     0.000000000000     0          
Zr2      Zr     0.282240000000     0.282240000000     0.045500000000     0          
O1       O      0.306400000000     0.261800000000     0.000000000000     0          
O6       O      0.228000000000     0.272000000000     0.048200000000     0          
S1       S      0.250140000000     0.389580000000     0.110420000000     0          
O2       O      0.661300000000     0.208480000000     0.033660000000     0          
O3       O      0.668600000000     0.258200000000     0.063100000000     0          
C1       C      0.652400000000     0.231400000000     0.058000000000     0          
C2       C      0.625400000000     0.220300000000     0.079200000000     0          
C3       C      0.602100000000     0.195100000000     0.076400000000     0          
H1       H      0.602810000000     0.178750000000     0.058730000000     0          
Zr1      Zr     0.705420000000     0.205420000000     0.000000000000     0          
Zr2      Zr     0.717760000000     0.282240000000     0.045500000000     0          
O1       O      0.738200000000     0.306400000000     0.000000000000     0          
O6       O      0.728000000000     0.228000000000     0.048200000000     0          
S1       S      0.610420000000     0.250140000000     0.110420000000     0          
O2       O      0.791520000000     0.661300000000     0.033660000000     0          
O3       O      0.741800000000     0.668600000000     0.063100000000     0          
C1       C      0.768600000000     0.652400000000     0.058000000000     0          
C2       C      0.779700000000     0.625400000000     0.079200000000     0          
C3       C      0.804900000000     0.602100000000     0.076400000000     0          
H1       H      0.821250000000     0.602810000000     0.058730000000     0          
Zr1      Zr     0.794580000000     0.705420000000     0.000000000000     0          
Zr2      Zr     0.717760000000     0.717760000000     0.045500000000     0          
O1       O      0.693600000000     0.738200000000     0.000000000000     0          
O6       O      0.772000000000     0.728000000000     0.048200000000     0          
S1       S      0.749860000000     0.610420000000     0.110420000000     0          
O2       O      0.338700000000     0.791520000000     0.033660000000     0          
O3       O      0.331400000000     0.741800000000     0.063100000000     0          
C1       C      0.347600000000     0.768600000000     0.058000000000     0          
C2       C      0.374600000000     0.779700000000     0.079200000000     0          
C3       C      0.397900000000     0.804900000000     0.076400000000     0          
H1       H      0.397190000000     0.821250000000     0.058730000000     0          
Zr1      Zr     0.294580000000     0.794580000000     0.000000000000     0          
Zr2      Zr     0.282240000000     0.717760000000     0.045500000000     0          
O1       O      0.261800000000     0.693600000000     0.000000000000     0          
O6       O      0.272000000000     0.772000000000     0.048200000000     0          
S1       S      0.389580000000     0.749860000000     0.110420000000     0          
O2       O      0.208480000000     0.661300000000     0.966340000000     0          
O3       O      0.258200000000     0.668600000000     0.936900000000     0          
C1       C      0.231400000000     0.652400000000     0.942000000000     0          
C2       C      0.220300000000     0.625400000000     0.920800000000     0          
C3       C      0.195100000000     0.602100000000     0.923600000000     0          
H1       H      0.178750000000     0.602810000000     0.941270000000     0          
Zr1      Zr     0.205420000000     0.705420000000     0.000000000000     0          
Zr2      Zr     0.282240000000     0.717760000000     0.954500000000     0          
O1       O      0.306400000000     0.738200000000     0.000000000000     0          
O6       O      0.228000000000     0.728000000000     0.951800000000     0          
S1       S      0.250140000000     0.610420000000     0.889580000000     0          
O2       O      0.338700000000     0.208480000000     0.966340000000     0          
O3       O      0.331400000000     0.258200000000     0.936900000000     0          
C1       C      0.347600000000     0.231400000000     0.942000000000     0          
C2       C      0.374600000000     0.220300000000     0.920800000000     0          
C3       C      0.397900000000     0.195100000000     0.923600000000     0          
H1       H      0.397190000000     0.178750000000     0.941270000000     0          
Zr1      Zr     0.294580000000     0.205420000000     0.000000000000     0          
Zr2      Zr     0.282240000000     0.282240000000     0.954500000000     0          
O1       O      0.261800000000     0.306400000000     0.000000000000     0          
O6       O      0.272000000000     0.228000000000     0.951800000000     0          
S1       S      0.389580000000     0.250140000000     0.889580000000     0          
O2       O      0.791520000000     0.338700000000     0.966340000000     0          
O3       O      0.741800000000     0.331400000000     0.936900000000     0          
C1       C      0.768600000000     0.347600000000     0.942000000000     0          
C2       C      0.779700000000     0.374600000000     0.920800000000     0          
C3       C      0.804900000000     0.397900000000     0.923600000000     0          
H1       H      0.821250000000     0.397190000000     0.941270000000     0          
Zr1      Zr     0.794580000000     0.294580000000     0.000000000000     0          
Zr2      Zr     0.717760000000     0.282240000000     0.954500000000     0          
O1       O      0.693600000000     0.261800000000     0.000000000000     0          
O6       O      0.772000000000     0.272000000000     0.951800000000     0          
S1       S      0.749860000000     0.389580000000     0.889580000000     0          
O2       O      0.661300000000     0.791520000000     0.966340000000     0          
O3       O      0.668600000000     0.741800000000     0.936900000000     0          
C1       C      0.652400000000     0.768600000000     0.942000000000     0          
C2       C      0.625400000000     0.779700000000     0.920800000000     0          
C3       C      0.602100000000     0.804900000000     0.923600000000     0          
H1       H      0.602810000000     0.821250000000     0.941270000000     0          
Zr1      Zr     0.705420000000     0.794580000000     0.000000000000     0          
Zr2      Zr     0.717760000000     0.717760000000     0.954500000000     0          
O1       O      0.738200000000     0.693600000000     0.000000000000     0          
O6       O      0.728000000000     0.772000000000     0.951800000000     0          
S1       S      0.610420000000     0.749860000000     0.889580000000     0          
O2       O      0.033660000000     0.208480000000     0.338700000000     0          
O3       O      0.063100000000     0.258200000000     0.331400000000     0          
C1       C      0.058000000000     0.231400000000     0.347600000000     0          
C2       C      0.079200000000     0.220300000000     0.374600000000     0          
C3       C      0.076400000000     0.195100000000     0.397900000000     0          
H1       H      0.058730000000     0.178750000000     0.397190000000     0          
Zr1      Zr     0.000000000000     0.205420000000     0.294580000000     0          
Zr2      Zr     0.045500000000     0.282240000000     0.282240000000     0          
O1       O      0.000000000000     0.306400000000     0.261800000000     0          
O6       O      0.048200000000     0.228000000000     0.272000000000     0          
S1       S      0.110420000000     0.250140000000     0.389580000000     0          
O2       O      0.033660000000     0.791520000000     0.661300000000     0          
O3       O      0.063100000000     0.741800000000     0.668600000000     0          
C1       C      0.058000000000     0.768600000000     0.652400000000     0          
C2       C      0.079200000000     0.779700000000     0.625400000000     0          
C3       C      0.076400000000     0.804900000000     0.602100000000     0          
H1       H      0.058730000000     0.821250000000     0.602810000000     0          
Zr1      Zr     0.000000000000     0.794580000000     0.705420000000     0          
Zr2      Zr     0.045500000000     0.717760000000     0.717760000000     0          
O1       O      0.000000000000     0.693600000000     0.738200000000     0          
O6       O      0.048200000000     0.772000000000     0.728000000000     0          
S1       S      0.110420000000     0.749860000000     0.610420000000     0          
O2       O      0.208480000000     0.033660000000     0.661300000000     0          
O3       O      0.258200000000     0.063100000000     0.668600000000     0          
C1       C      0.231400000000     0.058000000000     0.652400000000     0          
C2       C      0.220300000000     0.079200000000     0.625400000000     0          
C3       C      0.195100000000     0.076400000000     0.602100000000     0          
H1       H      0.178750000000     0.058730000000     0.602810000000     0          
Zr1      Zr     0.205420000000     0.000000000000     0.705420000000     0          
Zr2      Zr     0.282240000000     0.045500000000     0.717760000000     0          
O1       O      0.306400000000     0.000000000000     0.738200000000     0          
O6       O      0.228000000000     0.048200000000     0.728000000000     0          
S1       S      0.250140000000     0.110420000000     0.610420000000     0          
O2       O      0.966340000000     0.208480000000     0.661300000000     0          
O3       O      0.936900000000     0.258200000000     0.668600000000     0          
C1       C      0.942000000000     0.231400000000     0.652400000000     0          
C2       C      0.920800000000     0.220300000000     0.625400000000     0          
C3       C      0.923600000000     0.195100000000     0.602100000000     0          
H1       H      0.941270000000     0.178750000000     0.602810000000     0          
Zr1      Zr     0.000000000000     0.205420000000     0.705420000000     0          
Zr2      Zr     0.954500000000     0.282240000000     0.717760000000     0          
O1       O      0.000000000000     0.306400000000     0.738200000000     0          
O6       O      0.951800000000     0.228000000000     0.728000000000     0          
S1       S      0.889580000000     0.250140000000     0.610420000000     0          
O2       O      0.791520000000     0.966340000000     0.661300000000     0          
O3       O      0.741800000000     0.936900000000     0.668600000000     0          
C1       C      0.768600000000     0.942000000000     0.652400000000     0          
C2       C      0.779700000000     0.920800000000     0.625400000000     0          
C3       C      0.804900000000     0.923600000000     0.602100000000     0          
H1       H      0.821250000000     0.941270000000     0.602810000000     0          
Zr1      Zr     0.794580000000     0.000000000000     0.705420000000     0          
Zr2      Zr     0.717760000000     0.954500000000     0.717760000000     0          
O1       O      0.693600000000     0.000000000000     0.738200000000     0          
O6       O      0.772000000000     0.951800000000     0.728000000000     0          
S1       S      0.749860000000     0.889580000000     0.610420000000     0          
O2       O      0.966340000000     0.791520000000     0.338700000000     0          
O3       O      0.936900000000     0.741800000000     0.331400000000     0          
C1       C      0.942000000000     0.768600000000     0.347600000000     0          
C2       C      0.920800000000     0.779700000000     0.374600000000     0          
C3       C      0.923600000000     0.804900000000     0.397900000000     0          
H1       H      0.941270000000     0.821250000000     0.397190000000     0          
Zr1      Zr     0.000000000000     0.794580000000     0.294580000000     0          
Zr2      Zr     0.954500000000     0.717760000000     0.282240000000     0          
O1       O      0.000000000000     0.693600000000     0.261800000000     0          
O6       O      0.951800000000     0.772000000000     0.272000000000     0          
S1       S      0.889580000000     0.749860000000     0.389580000000     0          
O2       O      0.208480000000     0.966340000000     0.338700000000     0          
O3       O      0.258200000000     0.936900000000     0.331400000000     0          
C1       C      0.231400000000     0.942000000000     0.347600000000     0          
C2       C      0.220300000000     0.920800000000     0.374600000000     0          
C3       C      0.195100000000     0.923600000000     0.397900000000     0          
H1       H      0.178750000000     0.941270000000     0.397190000000     0          
Zr1      Zr     0.205420000000     0.000000000000     0.294580000000     0          
Zr2      Zr     0.282240000000     0.954500000000     0.282240000000     0          
O1       O      0.306400000000     0.000000000000     0.261800000000     0          
O6       O      0.228000000000     0.951800000000     0.272000000000     0          
S1       S      0.250140000000     0.889580000000     0.389580000000     0          
O2       O      0.791520000000     0.033660000000     0.338700000000     0          
O3       O      0.741800000000     0.063100000000     0.331400000000     0          
C1       C      0.768600000000     0.058000000000     0.347600000000     0          
C2       C      0.779700000000     0.079200000000     0.374600000000     0          
C3       C      0.804900000000     0.076400000000     0.397900000000     0          
H1       H      0.821250000000     0.058730000000     0.397190000000     0          
Zr1      Zr     0.794580000000     0.000000000000     0.294580000000     0          
Zr2      Zr     0.717760000000     0.045500000000     0.282240000000     0          
O1       O      0.693600000000     0.000000000000     0.261800000000     0          
O6       O      0.772000000000     0.048200000000     0.272000000000     0          
S1       S      0.749860000000     0.110420000000     0.389580000000     0          
O2       O      0.661300000000     0.966340000000     0.791520000000     0          
O3       O      0.668600000000     0.936900000000     0.741800000000     0          
C1       C      0.652400000000     0.942000000000     0.768600000000     0          
C2       C      0.625400000000     0.920800000000     0.779700000000     0          
C3       C      0.602100000000     0.923600000000     0.804900000000     0          
H1       H      0.602810000000     0.941270000000     0.821250000000     0          
O6       O      0.728000000000     0.951800000000     0.772000000000     0          
S1       S      0.610420000000     0.889580000000     0.749860000000     0          
O2       O      0.033660000000     0.661300000000     0.791520000000     0          
O3       O      0.063100000000     0.668600000000     0.741800000000     0          
C1       C      0.058000000000     0.652400000000     0.768600000000     0          
C2       C      0.079200000000     0.625400000000     0.779700000000     0          
C3       C      0.076400000000     0.602100000000     0.804900000000     0          
H1       H      0.058730000000     0.602810000000     0.821250000000     0          
O6       O      0.048200000000     0.728000000000     0.772000000000     0          
S1       S      0.110420000000     0.610420000000     0.749860000000     0          
O2       O      0.338700000000     0.033660000000     0.791520000000     0          
O3       O      0.331400000000     0.063100000000     0.741800000000     0          
C1       C      0.347600000000     0.058000000000     0.768600000000     0          
C2       C      0.374600000000     0.079200000000     0.779700000000     0          
C3       C      0.397900000000     0.076400000000     0.804900000000     0          
H1       H      0.397190000000     0.058730000000     0.821250000000     0          
O6       O      0.272000000000     0.048200000000     0.772000000000     0          
S1       S      0.389580000000     0.110420000000     0.749860000000     0          
O2       O      0.966340000000     0.338700000000     0.791520000000     0          
O3       O      0.936900000000     0.331400000000     0.741800000000     0          
C1       C      0.942000000000     0.347600000000     0.768600000000     0          
C2       C      0.920800000000     0.374600000000     0.779700000000     0          
C3       C      0.923600000000     0.397900000000     0.804900000000     0          
H1       H      0.941270000000     0.397190000000     0.821250000000     0          
O6       O      0.951800000000     0.272000000000     0.772000000000     0          
S1       S      0.889580000000     0.389580000000     0.749860000000     0          
O2       O      0.661300000000     0.033660000000     0.208480000000     0          
O3       O      0.668600000000     0.063100000000     0.258200000000     0          
C1       C      0.652400000000     0.058000000000     0.231400000000     0          
C2       C      0.625400000000     0.079200000000     0.220300000000     0          
C3       C      0.602100000000     0.076400000000     0.195100000000     0          
H1       H      0.602810000000     0.058730000000     0.178750000000     0          
O6       O      0.728000000000     0.048200000000     0.228000000000     0          
S1       S      0.610420000000     0.110420000000     0.250140000000     0          
O2       O      0.966340000000     0.661300000000     0.208480000000     0          
O3       O      0.936900000000     0.668600000000     0.258200000000     0          
C1       C      0.942000000000     0.652400000000     0.231400000000     0          
C2       C      0.920800000000     0.625400000000     0.220300000000     0          
C3       C      0.923600000000     0.602100000000     0.195100000000     0          
H1       H      0.941270000000     0.602810000000     0.178750000000     0          
O6       O      0.951800000000     0.728000000000     0.228000000000     0          
S1       S      0.889580000000     0.610420000000     0.250140000000     0          
O2       O      0.338700000000     0.966340000000     0.208480000000     0          
O3       O      0.331400000000     0.936900000000     0.258200000000     0          
C1       C      0.347600000000     0.942000000000     0.231400000000     0          
C2       C      0.374600000000     0.920800000000     0.220300000000     0          
C3       C      0.397900000000     0.923600000000     0.195100000000     0          
H1       H      0.397190000000     0.941270000000     0.178750000000     0          
O6       O      0.272000000000     0.951800000000     0.228000000000     0          
S1       S      0.389580000000     0.889580000000     0.250140000000     0          
O2       O      0.033660000000     0.338700000000     0.208480000000     0          
O3       O      0.063100000000     0.331400000000     0.258200000000     0          
C1       C      0.058000000000     0.347600000000     0.231400000000     0          
C2       C      0.079200000000     0.374600000000     0.220300000000     0          
C3       C      0.076400000000     0.397900000000     0.195100000000     0          
H1       H      0.058730000000     0.397190000000     0.178750000000     0          
O6       O      0.048200000000     0.272000000000     0.228000000000     0          
S1       S      0.110420000000     0.389580000000     0.250140000000     0          
O2       O      0.791520000000     0.661300000000     0.966340000000     0          
O3       O      0.741800000000     0.668600000000     0.936900000000     0          
C1       C      0.768600000000     0.652400000000     0.942000000000     0          
C2       C      0.779700000000     0.625400000000     0.920800000000     0          
C3       C      0.804900000000     0.602100000000     0.923600000000     0          
H1       H      0.821250000000     0.602810000000     0.941270000000     0          
O6       O      0.772000000000     0.728000000000     0.951800000000     0          
S1       S      0.749860000000     0.610420000000     0.889580000000     0          
O2       O      0.338700000000     0.791520000000     0.966340000000     0          
O3       O      0.331400000000     0.741800000000     0.936900000000     0          
C1       C      0.347600000000     0.768600000000     0.942000000000     0          
C2       C      0.374600000000     0.779700000000     0.920800000000     0          
C3       C      0.397900000000     0.804900000000     0.923600000000     0          
H1       H      0.397190000000     0.821250000000     0.941270000000     0          
O6       O      0.272000000000     0.772000000000     0.951800000000     0          
S1       S      0.389580000000     0.749860000000     0.889580000000     0          
O2       O      0.208480000000     0.338700000000     0.966340000000     0          
O3       O      0.258200000000     0.331400000000     0.936900000000     0          
C1       C      0.231400000000     0.347600000000     0.942000000000     0          
C2       C      0.220300000000     0.374600000000     0.920800000000     0          
C3       C      0.195100000000     0.397900000000     0.923600000000     0          
H1       H      0.178750000000     0.397190000000     0.941270000000     0          
O6       O      0.228000000000     0.272000000000     0.951800000000     0          
S1       S      0.250140000000     0.389580000000     0.889580000000     0          
O2       O      0.661300000000     0.208480000000     0.966340000000     0          
O3       O      0.668600000000     0.258200000000     0.936900000000     0          
C1       C      0.652400000000     0.231400000000     0.942000000000     0          
C2       C      0.625400000000     0.220300000000     0.920800000000     0          
C3       C      0.602100000000     0.195100000000     0.923600000000     0          
H1       H      0.602810000000     0.178750000000     0.941270000000     0          
O6       O      0.728000000000     0.228000000000     0.951800000000     0          
S1       S      0.610420000000     0.250140000000     0.889580000000     0          
O2       O      0.791520000000     0.338700000000     0.033660000000     0          
O3       O      0.741800000000     0.331400000000     0.063100000000     0          
C1       C      0.768600000000     0.347600000000     0.058000000000     0          
C2       C      0.779700000000     0.374600000000     0.079200000000     0          
C3       C      0.804900000000     0.397900000000     0.076400000000     0          
H1       H      0.821250000000     0.397190000000     0.058730000000     0          
O6       O      0.772000000000     0.272000000000     0.048200000000     0          
S1       S      0.749860000000     0.389580000000     0.110420000000     0          
O2       O      0.661300000000     0.791520000000     0.033660000000     0          
O3       O      0.668600000000     0.741800000000     0.063100000000     0          
C1       C      0.652400000000     0.768600000000     0.058000000000     0          
C2       C      0.625400000000     0.779700000000     0.079200000000     0          
C3       C      0.602100000000     0.804900000000     0.076400000000     0          
H1       H      0.602810000000     0.821250000000     0.058730000000     0          
O6       O      0.728000000000     0.772000000000     0.048200000000     0          
S1       S      0.610420000000     0.749860000000     0.110420000000     0          
O2       O      0.208480000000     0.661300000000     0.033660000000     0          
O3       O      0.258200000000     0.668600000000     0.063100000000     0          
C1       C      0.231400000000     0.652400000000     0.058000000000     0          
C2       C      0.220300000000     0.625400000000     0.079200000000     0          
C3       C      0.195100000000     0.602100000000     0.076400000000     0          
H1       H      0.178750000000     0.602810000000     0.058730000000     0          
O6       O      0.228000000000     0.728000000000     0.048200000000     0          
S1       S      0.250140000000     0.610420000000     0.110420000000     0          
O2       O      0.338700000000     0.208480000000     0.033660000000     0          
O3       O      0.331400000000     0.258200000000     0.063100000000     0          
C1       C      0.347600000000     0.231400000000     0.058000000000     0          
C2       C      0.374600000000     0.220300000000     0.079200000000     0          
C3       C      0.397900000000     0.195100000000     0.076400000000     0          
H1       H      0.397190000000     0.178750000000     0.058730000000     0          
O6       O      0.272000000000     0.228000000000     0.048200000000     0          
S1       S      0.389580000000     0.250140000000     0.110420000000     0          
O2       O      0.966340000000     0.791520000000     0.661300000000     0          
O3       O      0.936900000000     0.741800000000     0.668600000000     0          
C1       C      0.942000000000     0.768600000000     0.652400000000     0          
C2       C      0.920800000000     0.779700000000     0.625400000000     0          
C3       C      0.923600000000     0.804900000000     0.602100000000     0          
H1       H      0.941270000000     0.821250000000     0.602810000000     0          
O6       O      0.951800000000     0.772000000000     0.728000000000     0          
S1       S      0.889580000000     0.749860000000     0.610420000000     0          
O2       O      0.966340000000     0.208480000000     0.338700000000     0          
O3       O      0.936900000000     0.258200000000     0.331400000000     0          
C1       C      0.942000000000     0.231400000000     0.347600000000     0          
C2       C      0.920800000000     0.220300000000     0.374600000000     0          
C3       C      0.923600000000     0.195100000000     0.397900000000     0          
H1       H      0.941270000000     0.178750000000     0.397190000000     0          
O6       O      0.951800000000     0.228000000000     0.272000000000     0          
S1       S      0.889580000000     0.250140000000     0.389580000000     0          
O2       O      0.791520000000     0.966340000000     0.338700000000     0          
O3       O      0.741800000000     0.936900000000     0.331400000000     0          
C1       C      0.768600000000     0.942000000000     0.347600000000     0          
C2       C      0.779700000000     0.920800000000     0.374600000000     0          
C3       C      0.804900000000     0.923600000000     0.397900000000     0          
H1       H      0.821250000000     0.941270000000     0.397190000000     0          
O6       O      0.772000000000     0.951800000000     0.272000000000     0          
S1       S      0.749860000000     0.889580000000     0.389580000000     0          
O2       O      0.033660000000     0.791520000000     0.338700000000     0          
O3       O      0.063100000000     0.741800000000     0.331400000000     0          
C1       C      0.058000000000     0.768600000000     0.347600000000     0          
C2       C      0.079200000000     0.779700000000     0.374600000000     0          
C3       C      0.076400000000     0.804900000000     0.397900000000     0          
H1       H      0.058730000000     0.821250000000     0.397190000000     0          
O6       O      0.048200000000     0.772000000000     0.272000000000     0          
S1       S      0.110420000000     0.749860000000     0.389580000000     0          
O2       O      0.208480000000     0.033660000000     0.338700000000     0          
O3       O      0.258200000000     0.063100000000     0.331400000000     0          
C1       C      0.231400000000     0.058000000000     0.347600000000     0          
C2       C      0.220300000000     0.079200000000     0.374600000000     0          
C3       C      0.195100000000     0.076400000000     0.397900000000     0          
H1       H      0.178750000000     0.058730000000     0.397190000000     0          
O6       O      0.228000000000     0.048200000000     0.272000000000     0          
S1       S      0.250140000000     0.110420000000     0.389580000000     0          
O2       O      0.033660000000     0.208480000000     0.661300000000     0          
O3       O      0.063100000000     0.258200000000     0.668600000000     0          
C1       C      0.058000000000     0.231400000000     0.652400000000     0          
C2       C      0.079200000000     0.220300000000     0.625400000000     0          
C3       C      0.076400000000     0.195100000000     0.602100000000     0          
H1       H      0.058730000000     0.178750000000     0.602810000000     0          
O6       O      0.048200000000     0.228000000000     0.728000000000     0          
S1       S      0.110420000000     0.250140000000     0.610420000000     0          
O2       O      0.791520000000     0.033660000000     0.661300000000     0          
O3       O      0.741800000000     0.063100000000     0.668600000000     0          
C1       C      0.768600000000     0.058000000000     0.652400000000     0          
C2       C      0.779700000000     0.079200000000     0.625400000000     0          
C3       C      0.804900000000     0.076400000000     0.602100000000     0          
H1       H      0.821250000000     0.058730000000     0.602810000000     0          
O6       O      0.772000000000     0.048200000000     0.728000000000     0          
S1       S      0.749860000000     0.110420000000     0.610420000000     0          
O2       O      0.208480000000     0.966340000000     0.661300000000     0          
O3       O      0.258200000000     0.936900000000     0.668600000000     0          
C1       C      0.231400000000     0.942000000000     0.652400000000     0          
C2       C      0.220300000000     0.920800000000     0.625400000000     0          
C3       C      0.195100000000     0.923600000000     0.602100000000     0          
H1       H      0.178750000000     0.941270000000     0.602810000000     0          
O6       O      0.228000000000     0.951800000000     0.728000000000     0          
S1       S      0.250140000000     0.889580000000     0.610420000000     0          
O2       O      0.338700000000     0.533660000000     0.708480000000     0          
O3       O      0.331400000000     0.563100000000     0.758200000000     0          
C1       C      0.347600000000     0.558000000000     0.731400000000     0          
C2       C      0.374600000000     0.579200000000     0.720300000000     0          
C3       C      0.397900000000     0.576400000000     0.695100000000     0          
H1       H      0.397190000000     0.558730000000     0.678750000000     0          
Zr1      Zr     0.294580000000     0.500000000000     0.705420000000     0          
Zr2      Zr     0.282240000000     0.545500000000     0.782240000000     0          
O1       O      0.261800000000     0.500000000000     0.806400000000     0          
O6       O      0.272000000000     0.548200000000     0.728000000000     0          
S1       S      0.389580000000     0.610420000000     0.750140000000     0          
O2       O      0.966340000000     0.838700000000     0.708480000000     0          
O3       O      0.936900000000     0.831400000000     0.758200000000     0          
C1       C      0.942000000000     0.847600000000     0.731400000000     0          
C2       C      0.920800000000     0.874600000000     0.720300000000     0          
C3       C      0.923600000000     0.897900000000     0.695100000000     0          
H1       H      0.941270000000     0.897190000000     0.678750000000     0          
Zr2      Zr     0.954500000000     0.782240000000     0.782240000000     0          
O1       O      0.000000000000     0.761800000000     0.806400000000     0          
S1       S      0.889580000000     0.889580000000     0.750140000000     0          
O2       O      0.661300000000     0.466340000000     0.708480000000     0          
O3       O      0.668600000000     0.436900000000     0.758200000000     0          
C1       C      0.652400000000     0.442000000000     0.731400000000     0          
C2       C      0.625400000000     0.420800000000     0.720300000000     0          
C3       C      0.602100000000     0.423600000000     0.695100000000     0          
H1       H      0.602810000000     0.441270000000     0.678750000000     0          
Zr1      Zr     0.705420000000     0.500000000000     0.705420000000     0          
Zr2      Zr     0.717760000000     0.454500000000     0.782240000000     0          
O1       O      0.738200000000     0.500000000000     0.806400000000     0          
O6       O      0.728000000000     0.451800000000     0.728000000000     0          
S1       S      0.610420000000     0.389580000000     0.750140000000     0          
O2       O      0.033660000000     0.161300000000     0.708480000000     0          
O3       O      0.063100000000     0.168600000000     0.758200000000     0          
C1       C      0.058000000000     0.152400000000     0.731400000000     0          
C2       C      0.079200000000     0.125400000000     0.720300000000     0          
C3       C      0.076400000000     0.102100000000     0.695100000000     0          
H1       H      0.058730000000     0.102810000000     0.678750000000     0          
Zr2      Zr     0.045500000000     0.217760000000     0.782240000000     0          
O1       O      0.000000000000     0.238200000000     0.806400000000     0          
S1       S      0.110420000000     0.110420000000     0.750140000000     0          
O2       O      0.338700000000     0.466340000000     0.291520000000     0          
O3       O      0.331400000000     0.436900000000     0.241800000000     0          
C1       C      0.347600000000     0.442000000000     0.268600000000     0          
C2       C      0.374600000000     0.420800000000     0.279700000000     0          
C3       C      0.397900000000     0.423600000000     0.304900000000     0          
H1       H      0.397190000000     0.441270000000     0.321250000000     0          
Zr1      Zr     0.294580000000     0.500000000000     0.294580000000     0          
Zr2      Zr     0.282240000000     0.454500000000     0.217760000000     0          
O1       O      0.261800000000     0.500000000000     0.193600000000     0          
O6       O      0.272000000000     0.451800000000     0.272000000000     0          
S1       S      0.389580000000     0.389580000000     0.249860000000     0          
O2       O      0.033660000000     0.838700000000     0.291520000000     0          
O3       O      0.063100000000     0.831400000000     0.241800000000     0          
C1       C      0.058000000000     0.847600000000     0.268600000000     0          
C2       C      0.079200000000     0.874600000000     0.279700000000     0          
C3       C      0.076400000000     0.897900000000     0.304900000000     0          
H1       H      0.058730000000     0.897190000000     0.321250000000     0          
Zr2      Zr     0.045500000000     0.782240000000     0.217760000000     0          
O1       O      0.000000000000     0.761800000000     0.193600000000     0          
S1       S      0.110420000000     0.889580000000     0.249860000000     0          
O2       O      0.661300000000     0.533660000000     0.291520000000     0          
O3       O      0.668600000000     0.563100000000     0.241800000000     0          
C1       C      0.652400000000     0.558000000000     0.268600000000     0          
C2       C      0.625400000000     0.579200000000     0.279700000000     0          
C3       C      0.602100000000     0.576400000000     0.304900000000     0          
H1       H      0.602810000000     0.558730000000     0.321250000000     0          
Zr1      Zr     0.705420000000     0.500000000000     0.294580000000     0          
Zr2      Zr     0.717760000000     0.545500000000     0.217760000000     0          
O1       O      0.738200000000     0.500000000000     0.193600000000     0          
O6       O      0.728000000000     0.548200000000     0.272000000000     0          
S1       S      0.610420000000     0.610420000000     0.249860000000     0          
O2       O      0.966340000000     0.161300000000     0.291520000000     0          
O3       O      0.936900000000     0.168600000000     0.241800000000     0          
C1       C      0.942000000000     0.152400000000     0.268600000000     0          
C2       C      0.920800000000     0.125400000000     0.279700000000     0          
C3       C      0.923600000000     0.102100000000     0.304900000000     0          
H1       H      0.941270000000     0.102810000000     0.321250000000     0          
Zr2      Zr     0.954500000000     0.217760000000     0.217760000000     0          
O1       O      0.000000000000     0.238200000000     0.193600000000     0          
S1       S      0.889580000000     0.110420000000     0.249860000000     0          
O2       O      0.208480000000     0.838700000000     0.533660000000     0          
O3       O      0.258200000000     0.831400000000     0.563100000000     0          
C1       C      0.231400000000     0.847600000000     0.558000000000     0          
C2       C      0.220300000000     0.874600000000     0.579200000000     0          
C3       C      0.195100000000     0.897900000000     0.576400000000     0          
H1       H      0.178750000000     0.897190000000     0.558730000000     0          
Zr1      Zr     0.205420000000     0.794580000000     0.500000000000     0          
Zr2      Zr     0.282240000000     0.782240000000     0.545500000000     0          
O1       O      0.306400000000     0.761800000000     0.500000000000     0          
O6       O      0.228000000000     0.772000000000     0.548200000000     0          
O2       O      0.661300000000     0.708480000000     0.533660000000     0          
O3       O      0.668600000000     0.758200000000     0.563100000000     0          
C1       C      0.652400000000     0.731400000000     0.558000000000     0          
C2       C      0.625400000000     0.720300000000     0.579200000000     0          
C3       C      0.602100000000     0.695100000000     0.576400000000     0          
H1       H      0.602810000000     0.678750000000     0.558730000000     0          
Zr1      Zr     0.705420000000     0.705420000000     0.500000000000     0          
Zr2      Zr     0.717760000000     0.782240000000     0.545500000000     0          
O1       O      0.738200000000     0.806400000000     0.500000000000     0          
O6       O      0.728000000000     0.728000000000     0.548200000000     0          
S1       S      0.610420000000     0.750140000000     0.610420000000     0          
O2       O      0.791520000000     0.161300000000     0.533660000000     0          
O3       O      0.741800000000     0.168600000000     0.563100000000     0          
C1       C      0.768600000000     0.152400000000     0.558000000000     0          
C2       C      0.779700000000     0.125400000000     0.579200000000     0          
C3       C      0.804900000000     0.102100000000     0.576400000000     0          
H1       H      0.821250000000     0.102810000000     0.558730000000     0          
Zr1      Zr     0.794580000000     0.205420000000     0.500000000000     0          
Zr2      Zr     0.717760000000     0.217760000000     0.545500000000     0          
O1       O      0.693600000000     0.238200000000     0.500000000000     0          
O6       O      0.772000000000     0.228000000000     0.548200000000     0          
O2       O      0.338700000000     0.291520000000     0.533660000000     0          
O3       O      0.331400000000     0.241800000000     0.563100000000     0          
C1       C      0.347600000000     0.268600000000     0.558000000000     0          
C2       C      0.374600000000     0.279700000000     0.579200000000     0          
C3       C      0.397900000000     0.304900000000     0.576400000000     0          
H1       H      0.397190000000     0.321250000000     0.558730000000     0          
Zr1      Zr     0.294580000000     0.294580000000     0.500000000000     0          
Zr2      Zr     0.282240000000     0.217760000000     0.545500000000     0          
O1       O      0.261800000000     0.193600000000     0.500000000000     0          
O6       O      0.272000000000     0.272000000000     0.548200000000     0          
S1       S      0.389580000000     0.249860000000     0.610420000000     0          
O2       O      0.208480000000     0.161300000000     0.466340000000     0          
O3       O      0.258200000000     0.168600000000     0.436900000000     0          
C1       C      0.231400000000     0.152400000000     0.442000000000     0          
C2       C      0.220300000000     0.125400000000     0.420800000000     0          
C3       C      0.195100000000     0.102100000000     0.423600000000     0          
H1       H      0.178750000000     0.102810000000     0.441270000000     0          
Zr1      Zr     0.205420000000     0.205420000000     0.500000000000     0          
Zr2      Zr     0.282240000000     0.217760000000     0.454500000000     0          
O1       O      0.306400000000     0.238200000000     0.500000000000     0          
O6       O      0.228000000000     0.228000000000     0.451800000000     0          
O2       O      0.338700000000     0.708480000000     0.466340000000     0          
O3       O      0.331400000000     0.758200000000     0.436900000000     0          
C1       C      0.347600000000     0.731400000000     0.442000000000     0          
C2       C      0.374600000000     0.720300000000     0.420800000000     0          
C3       C      0.397900000000     0.695100000000     0.423600000000     0          
H1       H      0.397190000000     0.678750000000     0.441270000000     0          
Zr1      Zr     0.294580000000     0.705420000000     0.500000000000     0          
Zr2      Zr     0.282240000000     0.782240000000     0.454500000000     0          
O1       O      0.261800000000     0.806400000000     0.500000000000     0          
O6       O      0.272000000000     0.728000000000     0.451800000000     0          
S1       S      0.389580000000     0.750140000000     0.389580000000     0          
O2       O      0.791520000000     0.838700000000     0.466340000000     0          
O3       O      0.741800000000     0.831400000000     0.436900000000     0          
C1       C      0.768600000000     0.847600000000     0.442000000000     0          
C2       C      0.779700000000     0.874600000000     0.420800000000     0          
C3       C      0.804900000000     0.897900000000     0.423600000000     0          
H1       H      0.821250000000     0.897190000000     0.441270000000     0          
Zr1      Zr     0.794580000000     0.794580000000     0.500000000000     0          
Zr2      Zr     0.717760000000     0.782240000000     0.454500000000     0          
O1       O      0.693600000000     0.761800000000     0.500000000000     0          
O6       O      0.772000000000     0.772000000000     0.451800000000     0          
O2       O      0.661300000000     0.291520000000     0.466340000000     0          
O3       O      0.668600000000     0.241800000000     0.436900000000     0          
C1       C      0.652400000000     0.268600000000     0.442000000000     0          
C2       C      0.625400000000     0.279700000000     0.420800000000     0          
C3       C      0.602100000000     0.304900000000     0.423600000000     0          
H1       H      0.602810000000     0.321250000000     0.441270000000     0          
Zr1      Zr     0.705420000000     0.294580000000     0.500000000000     0          
Zr2      Zr     0.717760000000     0.217760000000     0.454500000000     0          
O1       O      0.738200000000     0.193600000000     0.500000000000     0          
O6       O      0.728000000000     0.272000000000     0.451800000000     0          
S1       S      0.610420000000     0.249860000000     0.389580000000     0          
O2       O      0.033660000000     0.708480000000     0.838700000000     0          
O3       O      0.063100000000     0.758200000000     0.831400000000     0          
C1       C      0.058000000000     0.731400000000     0.847600000000     0          
C2       C      0.079200000000     0.720300000000     0.874600000000     0          
C3       C      0.076400000000     0.695100000000     0.897900000000     0          
H1       H      0.058730000000     0.678750000000     0.897190000000     0          
Zr2      Zr     0.045500000000     0.782240000000     0.782240000000     0          
O1       O      0.000000000000     0.806400000000     0.761800000000     0          
S1       S      0.110420000000     0.750140000000     0.889580000000     0          
O2       O      0.033660000000     0.291520000000     0.161300000000     0          
O3       O      0.063100000000     0.241800000000     0.168600000000     0          
C1       C      0.058000000000     0.268600000000     0.152400000000     0          
C2       C      0.079200000000     0.279700000000     0.125400000000     0          
C3       C      0.076400000000     0.304900000000     0.102100000000     0          
H1       H      0.058730000000     0.321250000000     0.102810000000     0          
Zr2      Zr     0.045500000000     0.217760000000     0.217760000000     0          
O1       O      0.000000000000     0.193600000000     0.238200000000     0          
S1       S      0.110420000000     0.249860000000     0.110420000000     0          
O2       O      0.208480000000     0.533660000000     0.161300000000     0          
O3       O      0.258200000000     0.563100000000     0.168600000000     0          
C1       C      0.231400000000     0.558000000000     0.152400000000     0          
C2       C      0.220300000000     0.579200000000     0.125400000000     0          
C3       C      0.195100000000     0.576400000000     0.102100000000     0          
H1       H      0.178750000000     0.558730000000     0.102810000000     0          
Zr1      Zr     0.205420000000     0.500000000000     0.205420000000     0          
Zr2      Zr     0.282240000000     0.545500000000     0.217760000000     0          
O1       O      0.306400000000     0.500000000000     0.238200000000     0          
O6       O      0.228000000000     0.548200000000     0.228000000000     0          
O2       O      0.966340000000     0.708480000000     0.161300000000     0          
O3       O      0.936900000000     0.758200000000     0.168600000000     0          
C1       C      0.942000000000     0.731400000000     0.152400000000     0          
C2       C      0.920800000000     0.720300000000     0.125400000000     0          
C3       C      0.923600000000     0.695100000000     0.102100000000     0          
H1       H      0.941270000000     0.678750000000     0.102810000000     0          
Zr2      Zr     0.954500000000     0.782240000000     0.217760000000     0          
O1       O      0.000000000000     0.806400000000     0.238200000000     0          
S1       S      0.889580000000     0.750140000000     0.110420000000     0          
O2       O      0.791520000000     0.466340000000     0.161300000000     0          
O3       O      0.741800000000     0.436900000000     0.168600000000     0          
C1       C      0.768600000000     0.442000000000     0.152400000000     0          
C2       C      0.779700000000     0.420800000000     0.125400000000     0          
C3       C      0.804900000000     0.423600000000     0.102100000000     0          
H1       H      0.821250000000     0.441270000000     0.102810000000     0          
Zr1      Zr     0.794580000000     0.500000000000     0.205420000000     0          
Zr2      Zr     0.717760000000     0.454500000000     0.217760000000     0          
O1       O      0.693600000000     0.500000000000     0.238200000000     0          
O6       O      0.772000000000     0.451800000000     0.228000000000     0          
O2       O      0.966340000000     0.291520000000     0.838700000000     0          
O3       O      0.936900000000     0.241800000000     0.831400000000     0          
C1       C      0.942000000000     0.268600000000     0.847600000000     0          
C2       C      0.920800000000     0.279700000000     0.874600000000     0          
C3       C      0.923600000000     0.304900000000     0.897900000000     0          
H1       H      0.941270000000     0.321250000000     0.897190000000     0          
Zr2      Zr     0.954500000000     0.217760000000     0.782240000000     0          
O1       O      0.000000000000     0.193600000000     0.761800000000     0          
S1       S      0.889580000000     0.249860000000     0.889580000000     0          
O2       O      0.208480000000     0.466340000000     0.838700000000     0          
O3       O      0.258200000000     0.436900000000     0.831400000000     0          
C1       C      0.231400000000     0.442000000000     0.847600000000     0          
C2       C      0.220300000000     0.420800000000     0.874600000000     0          
C3       C      0.195100000000     0.423600000000     0.897900000000     0          
H1       H      0.178750000000     0.441270000000     0.897190000000     0          
Zr1      Zr     0.205420000000     0.500000000000     0.794580000000     0          
Zr2      Zr     0.282240000000     0.454500000000     0.782240000000     0          
O1       O      0.306400000000     0.500000000000     0.761800000000     0          
O6       O      0.228000000000     0.451800000000     0.772000000000     0          
O2       O      0.791520000000     0.533660000000     0.838700000000     0          
O3       O      0.741800000000     0.563100000000     0.831400000000     0          
C1       C      0.768600000000     0.558000000000     0.847600000000     0          
C2       C      0.779700000000     0.579200000000     0.874600000000     0          
C3       C      0.804900000000     0.576400000000     0.897900000000     0          
H1       H      0.821250000000     0.558730000000     0.897190000000     0          
Zr1      Zr     0.794580000000     0.500000000000     0.794580000000     0          
Zr2      Zr     0.717760000000     0.545500000000     0.782240000000     0          
O1       O      0.693600000000     0.500000000000     0.761800000000     0          
O6       O      0.772000000000     0.548200000000     0.772000000000     0          
O2       O      0.661300000000     0.466340000000     0.291520000000     0          
O3       O      0.668600000000     0.436900000000     0.241800000000     0          
C1       C      0.652400000000     0.442000000000     0.268600000000     0          
C2       C      0.625400000000     0.420800000000     0.279700000000     0          
C3       C      0.602100000000     0.423600000000     0.304900000000     0          
H1       H      0.602810000000     0.441270000000     0.321250000000     0          
O6       O      0.728000000000     0.451800000000     0.272000000000     0          
S1       S      0.610420000000     0.389580000000     0.249860000000     0          
O2       O      0.033660000000     0.161300000000     0.291520000000     0          
O3       O      0.063100000000     0.168600000000     0.241800000000     0          
C1       C      0.058000000000     0.152400000000     0.268600000000     0          
C2       C      0.079200000000     0.125400000000     0.279700000000     0          
C3       C      0.076400000000     0.102100000000     0.304900000000     0          
H1       H      0.058730000000     0.102810000000     0.321250000000     0          
S1       S      0.110420000000     0.110420000000     0.249860000000     0          
O2       O      0.338700000000     0.533660000000     0.291520000000     0          
O3       O      0.331400000000     0.563100000000     0.241800000000     0          
C1       C      0.347600000000     0.558000000000     0.268600000000     0          
C2       C      0.374600000000     0.579200000000     0.279700000000     0          
C3       C      0.397900000000     0.576400000000     0.304900000000     0          
H1       H      0.397190000000     0.558730000000     0.321250000000     0          
O6       O      0.272000000000     0.548200000000     0.272000000000     0          
S1       S      0.389580000000     0.610420000000     0.249860000000     0          
O2       O      0.966340000000     0.838700000000     0.291520000000     0          
O3       O      0.936900000000     0.831400000000     0.241800000000     0          
C1       C      0.942000000000     0.847600000000     0.268600000000     0          
C2       C      0.920800000000     0.874600000000     0.279700000000     0          
C3       C      0.923600000000     0.897900000000     0.304900000000     0          
H1       H      0.941270000000     0.897190000000     0.321250000000     0          
S1       S      0.889580000000     0.889580000000     0.249860000000     0          
O2       O      0.661300000000     0.533660000000     0.708480000000     0          
O3       O      0.668600000000     0.563100000000     0.758200000000     0          
C1       C      0.652400000000     0.558000000000     0.731400000000     0          
C2       C      0.625400000000     0.579200000000     0.720300000000     0          
C3       C      0.602100000000     0.576400000000     0.695100000000     0          
H1       H      0.602810000000     0.558730000000     0.678750000000     0          
O6       O      0.728000000000     0.548200000000     0.728000000000     0          
S1       S      0.610420000000     0.610420000000     0.750140000000     0          
O2       O      0.966340000000     0.161300000000     0.708480000000     0          
O3       O      0.936900000000     0.168600000000     0.758200000000     0          
C1       C      0.942000000000     0.152400000000     0.731400000000     0          
C2       C      0.920800000000     0.125400000000     0.720300000000     0          
C3       C      0.923600000000     0.102100000000     0.695100000000     0          
H1       H      0.941270000000     0.102810000000     0.678750000000     0          
S1       S      0.889580000000     0.110420000000     0.750140000000     0          
O2       O      0.338700000000     0.466340000000     0.708480000000     0          
O3       O      0.331400000000     0.436900000000     0.758200000000     0          
C1       C      0.347600000000     0.442000000000     0.731400000000     0          
C2       C      0.374600000000     0.420800000000     0.720300000000     0          
C3       C      0.397900000000     0.423600000000     0.695100000000     0          
H1       H      0.397190000000     0.441270000000     0.678750000000     0          
O6       O      0.272000000000     0.451800000000     0.728000000000     0          
S1       S      0.389580000000     0.389580000000     0.750140000000     0          
O2       O      0.033660000000     0.838700000000     0.708480000000     0          
O3       O      0.063100000000     0.831400000000     0.758200000000     0          
C1       C      0.058000000000     0.847600000000     0.731400000000     0          
C2       C      0.079200000000     0.874600000000     0.720300000000     0          
C3       C      0.076400000000     0.897900000000     0.695100000000     0          
H1       H      0.058730000000     0.897190000000     0.678750000000     0          
S1       S      0.110420000000     0.889580000000     0.750140000000     0          
O2       O      0.791520000000     0.161300000000     0.466340000000     0          
O3       O      0.741800000000     0.168600000000     0.436900000000     0          
C1       C      0.768600000000     0.152400000000     0.442000000000     0          
C2       C      0.779700000000     0.125400000000     0.420800000000     0          
C3       C      0.804900000000     0.102100000000     0.423600000000     0          
H1       H      0.821250000000     0.102810000000     0.441270000000     0          
O6       O      0.772000000000     0.228000000000     0.451800000000     0          
O2       O      0.338700000000     0.291520000000     0.466340000000     0          
O3       O      0.331400000000     0.241800000000     0.436900000000     0          
C1       C      0.347600000000     0.268600000000     0.442000000000     0          
C2       C      0.374600000000     0.279700000000     0.420800000000     0          
C3       C      0.397900000000     0.304900000000     0.423600000000     0          
H1       H      0.397190000000     0.321250000000     0.441270000000     0          
O6       O      0.272000000000     0.272000000000     0.451800000000     0          
S1       S      0.389580000000     0.249860000000     0.389580000000     0          
O2       O      0.208480000000     0.838700000000     0.466340000000     0          
O3       O      0.258200000000     0.831400000000     0.436900000000     0          
C1       C      0.231400000000     0.847600000000     0.442000000000     0          
C2       C      0.220300000000     0.874600000000     0.420800000000     0          
C3       C      0.195100000000     0.897900000000     0.423600000000     0          
H1       H      0.178750000000     0.897190000000     0.441270000000     0          
O6       O      0.228000000000     0.772000000000     0.451800000000     0          
O2       O      0.661300000000     0.708480000000     0.466340000000     0          
O3       O      0.668600000000     0.758200000000     0.436900000000     0          
C1       C      0.652400000000     0.731400000000     0.442000000000     0          
C2       C      0.625400000000     0.720300000000     0.420800000000     0          
C3       C      0.602100000000     0.695100000000     0.423600000000     0          
H1       H      0.602810000000     0.678750000000     0.441270000000     0          
O6       O      0.728000000000     0.728000000000     0.451800000000     0          
S1       S      0.610420000000     0.750140000000     0.389580000000     0          
O2       O      0.791520000000     0.838700000000     0.533660000000     0          
O3       O      0.741800000000     0.831400000000     0.563100000000     0          
C1       C      0.768600000000     0.847600000000     0.558000000000     0          
C2       C      0.779700000000     0.874600000000     0.579200000000     0          
C3       C      0.804900000000     0.897900000000     0.576400000000     0          
H1       H      0.821250000000     0.897190000000     0.558730000000     0          
O6       O      0.772000000000     0.772000000000     0.548200000000     0          
O2       O      0.661300000000     0.291520000000     0.533660000000     0          
O3       O      0.668600000000     0.241800000000     0.563100000000     0          
C1       C      0.652400000000     0.268600000000     0.558000000000     0          
C2       C      0.625400000000     0.279700000000     0.579200000000     0          
C3       C      0.602100000000     0.304900000000     0.576400000000     0          
H1       H      0.602810000000     0.321250000000     0.558730000000     0          
O6       O      0.728000000000     0.272000000000     0.548200000000     0          
S1       S      0.610420000000     0.249860000000     0.610420000000     0          
O2       O      0.208480000000     0.161300000000     0.533660000000     0          
O3       O      0.258200000000     0.168600000000     0.563100000000     0          
C1       C      0.231400000000     0.152400000000     0.558000000000     0          
C2       C      0.220300000000     0.125400000000     0.579200000000     0          
C3       C      0.195100000000     0.102100000000     0.576400000000     0          
H1       H      0.178750000000     0.102810000000     0.558730000000     0          
O6       O      0.228000000000     0.228000000000     0.548200000000     0          
O2       O      0.338700000000     0.708480000000     0.533660000000     0          
O3       O      0.331400000000     0.758200000000     0.563100000000     0          
C1       C      0.347600000000     0.731400000000     0.558000000000     0          
C2       C      0.374600000000     0.720300000000     0.579200000000     0          
C3       C      0.397900000000     0.695100000000     0.576400000000     0          
H1       H      0.397190000000     0.678750000000     0.558730000000     0          
O6       O      0.272000000000     0.728000000000     0.548200000000     0          
S1       S      0.389580000000     0.750140000000     0.610420000000     0          
O2       O      0.966340000000     0.291520000000     0.161300000000     0          
O3       O      0.936900000000     0.241800000000     0.168600000000     0          
C1       C      0.942000000000     0.268600000000     0.152400000000     0          
C2       C      0.920800000000     0.279700000000     0.125400000000     0          
C3       C      0.923600000000     0.304900000000     0.102100000000     0          
H1       H      0.941270000000     0.321250000000     0.102810000000     0          
S1       S      0.889580000000     0.249860000000     0.110420000000     0          
O2       O      0.966340000000     0.708480000000     0.838700000000     0          
O3       O      0.936900000000     0.758200000000     0.831400000000     0          
C1       C      0.942000000000     0.731400000000     0.847600000000     0          
C2       C      0.920800000000     0.720300000000     0.874600000000     0          
C3       C      0.923600000000     0.695100000000     0.897900000000     0          
H1       H      0.941270000000     0.678750000000     0.897190000000     0          
S1       S      0.889580000000     0.750140000000     0.889580000000     0          
O2       O      0.791520000000     0.466340000000     0.838700000000     0          
O3       O      0.741800000000     0.436900000000     0.831400000000     0          
C1       C      0.768600000000     0.442000000000     0.847600000000     0          
C2       C      0.779700000000     0.420800000000     0.874600000000     0          
C3       C      0.804900000000     0.423600000000     0.897900000000     0          
H1       H      0.821250000000     0.441270000000     0.897190000000     0          
O6       O      0.772000000000     0.451800000000     0.772000000000     0          
O2       O      0.033660000000     0.291520000000     0.838700000000     0          
O3       O      0.063100000000     0.241800000000     0.831400000000     0          
C1       C      0.058000000000     0.268600000000     0.847600000000     0          
C2       C      0.079200000000     0.279700000000     0.874600000000     0          
C3       C      0.076400000000     0.304900000000     0.897900000000     0          
H1       H      0.058730000000     0.321250000000     0.897190000000     0          
S1       S      0.110420000000     0.249860000000     0.889580000000     0          
O2       O      0.208480000000     0.533660000000     0.838700000000     0          
O3       O      0.258200000000     0.563100000000     0.831400000000     0          
C1       C      0.231400000000     0.558000000000     0.847600000000     0          
C2       C      0.220300000000     0.579200000000     0.874600000000     0          
C3       C      0.195100000000     0.576400000000     0.897900000000     0          
H1       H      0.178750000000     0.558730000000     0.897190000000     0          
O6       O      0.228000000000     0.548200000000     0.772000000000     0          
O2       O      0.033660000000     0.708480000000     0.161300000000     0          
O3       O      0.063100000000     0.758200000000     0.168600000000     0          
C1       C      0.058000000000     0.731400000000     0.152400000000     0          
C2       C      0.079200000000     0.720300000000     0.125400000000     0          
C3       C      0.076400000000     0.695100000000     0.102100000000     0          
H1       H      0.058730000000     0.678750000000     0.102810000000     0          
S1       S      0.110420000000     0.750140000000     0.110420000000     0          
O2       O      0.791520000000     0.533660000000     0.161300000000     0          
O3       O      0.741800000000     0.563100000000     0.168600000000     0          
C1       C      0.768600000000     0.558000000000     0.152400000000     0          
C2       C      0.779700000000     0.579200000000     0.125400000000     0          
C3       C      0.804900000000     0.576400000000     0.102100000000     0          
H1       H      0.821250000000     0.558730000000     0.102810000000     0          
O6       O      0.772000000000     0.548200000000     0.228000000000     0          
O2       O      0.208480000000     0.466340000000     0.161300000000     0          
O3       O      0.258200000000     0.436900000000     0.168600000000     0          
C1       C      0.231400000000     0.442000000000     0.152400000000     0          
C2       C      0.220300000000     0.420800000000     0.125400000000     0          
C3       C      0.195100000000     0.423600000000     0.102100000000     0          
H1       H      0.178750000000     0.441270000000     0.102810000000     0          
O6       O      0.228000000000     0.451800000000     0.228000000000     0          
O2       O      0.838700000000     0.033660000000     0.708480000000     0          
O3       O      0.831400000000     0.063100000000     0.758200000000     0          
C1       C      0.847600000000     0.058000000000     0.731400000000     0          
C2       C      0.874600000000     0.079200000000     0.720300000000     0          
C3       C      0.897900000000     0.076400000000     0.695100000000     0          
H1       H      0.897190000000     0.058730000000     0.678750000000     0          
Zr2      Zr     0.782240000000     0.045500000000     0.782240000000     0          
O1       O      0.761800000000     0.000000000000     0.806400000000     0          
O2       O      0.466340000000     0.338700000000     0.708480000000     0          
O3       O      0.436900000000     0.331400000000     0.758200000000     0          
C1       C      0.442000000000     0.347600000000     0.731400000000     0          
C2       C      0.420800000000     0.374600000000     0.720300000000     0          
C3       C      0.423600000000     0.397900000000     0.695100000000     0          
H1       H      0.441270000000     0.397190000000     0.678750000000     0          
Zr1      Zr     0.500000000000     0.294580000000     0.705420000000     0          
Zr2      Zr     0.454500000000     0.282240000000     0.782240000000     0          
O1       O      0.500000000000     0.261800000000     0.806400000000     0          
O6       O      0.451800000000     0.272000000000     0.728000000000     0          
O2       O      0.161300000000     0.966340000000     0.708480000000     0          
O3       O      0.168600000000     0.936900000000     0.758200000000     0          
C1       C      0.152400000000     0.942000000000     0.731400000000     0          
C2       C      0.125400000000     0.920800000000     0.720300000000     0          
C3       C      0.102100000000     0.923600000000     0.695100000000     0          
H1       H      0.102810000000     0.941270000000     0.678750000000     0          
Zr2      Zr     0.217760000000     0.954500000000     0.782240000000     0          
O1       O      0.238200000000     0.000000000000     0.806400000000     0          
O2       O      0.533660000000     0.661300000000     0.708480000000     0          
O3       O      0.563100000000     0.668600000000     0.758200000000     0          
C1       C      0.558000000000     0.652400000000     0.731400000000     0          
C2       C      0.579200000000     0.625400000000     0.720300000000     0          
C3       C      0.576400000000     0.602100000000     0.695100000000     0          
H1       H      0.558730000000     0.602810000000     0.678750000000     0          
Zr1      Zr     0.500000000000     0.705420000000     0.705420000000     0          
Zr2      Zr     0.545500000000     0.717760000000     0.782240000000     0          
O1       O      0.500000000000     0.738200000000     0.806400000000     0          
O6       O      0.548200000000     0.728000000000     0.728000000000     0          
O2       O      0.838700000000     0.966340000000     0.291520000000     0          
O3       O      0.831400000000     0.936900000000     0.241800000000     0          
C1       C      0.847600000000     0.942000000000     0.268600000000     0          
C2       C      0.874600000000     0.920800000000     0.279700000000     0          
C3       C      0.897900000000     0.923600000000     0.304900000000     0          
H1       H      0.897190000000     0.941270000000     0.321250000000     0          
Zr2      Zr     0.782240000000     0.954500000000     0.217760000000     0          
O1       O      0.761800000000     0.000000000000     0.193600000000     0          
O2       O      0.533660000000     0.338700000000     0.291520000000     0          
O3       O      0.563100000000     0.331400000000     0.241800000000     0          
C1       C      0.558000000000     0.347600000000     0.268600000000     0          
C2       C      0.579200000000     0.374600000000     0.279700000000     0          
C3       C      0.576400000000     0.397900000000     0.304900000000     0          
H1       H      0.558730000000     0.397190000000     0.321250000000     0          
Zr1      Zr     0.500000000000     0.294580000000     0.294580000000     0          
Zr2      Zr     0.545500000000     0.282240000000     0.217760000000     0          
O1       O      0.500000000000     0.261800000000     0.193600000000     0          
O6       O      0.548200000000     0.272000000000     0.272000000000     0          
O2       O      0.161300000000     0.033660000000     0.291520000000     0          
O3       O      0.168600000000     0.063100000000     0.241800000000     0          
C1       C      0.152400000000     0.058000000000     0.268600000000     0          
C2       C      0.125400000000     0.079200000000     0.279700000000     0          
C3       C      0.102100000000     0.076400000000     0.304900000000     0          
H1       H      0.102810000000     0.058730000000     0.321250000000     0          
Zr2      Zr     0.217760000000     0.045500000000     0.217760000000     0          
O1       O      0.238200000000     0.000000000000     0.193600000000     0          
O2       O      0.466340000000     0.661300000000     0.291520000000     0          
O3       O      0.436900000000     0.668600000000     0.241800000000     0          
C1       C      0.442000000000     0.652400000000     0.268600000000     0          
C2       C      0.420800000000     0.625400000000     0.279700000000     0          
C3       C      0.423600000000     0.602100000000     0.304900000000     0          
H1       H      0.441270000000     0.602810000000     0.321250000000     0          
Zr1      Zr     0.500000000000     0.705420000000     0.294580000000     0          
Zr2      Zr     0.454500000000     0.717760000000     0.217760000000     0          
O1       O      0.500000000000     0.738200000000     0.193600000000     0          
O6       O      0.451800000000     0.728000000000     0.272000000000     0          
O2       O      0.708480000000     0.338700000000     0.533660000000     0          
O3       O      0.758200000000     0.331400000000     0.563100000000     0          
C1       C      0.731400000000     0.347600000000     0.558000000000     0          
C2       C      0.720300000000     0.374600000000     0.579200000000     0          
C3       C      0.695100000000     0.397900000000     0.576400000000     0          
H1       H      0.678750000000     0.397190000000     0.558730000000     0          
Zr2      Zr     0.782240000000     0.282240000000     0.545500000000     0          
O1       O      0.806400000000     0.261800000000     0.500000000000     0          
S1       S      0.750140000000     0.389580000000     0.610420000000     0          
O2       O      0.161300000000     0.208480000000     0.533660000000     0          
O3       O      0.168600000000     0.258200000000     0.563100000000     0          
C1       C      0.152400000000     0.231400000000     0.558000000000     0          
C2       C      0.125400000000     0.220300000000     0.579200000000     0          
C3       C      0.102100000000     0.195100000000     0.576400000000     0          
H1       H      0.102810000000     0.178750000000     0.558730000000     0          
Zr2      Zr     0.217760000000     0.282240000000     0.545500000000     0          
O1       O      0.238200000000     0.306400000000     0.500000000000     0          
O2       O      0.291520000000     0.661300000000     0.533660000000     0          
O3       O      0.241800000000     0.668600000000     0.563100000000     0          
C1       C      0.268600000000     0.652400000000     0.558000000000     0          
C2       C      0.279700000000     0.625400000000     0.579200000000     0          
C3       C      0.304900000000     0.602100000000     0.576400000000     0          
H1       H      0.321250000000     0.602810000000     0.558730000000     0          
Zr2      Zr     0.217760000000     0.717760000000     0.545500000000     0          
O1       O      0.193600000000     0.738200000000     0.500000000000     0          
S1       S      0.249860000000     0.610420000000     0.610420000000     0          
O2       O      0.838700000000     0.791520000000     0.533660000000     0          
O3       O      0.831400000000     0.741800000000     0.563100000000     0          
C1       C      0.847600000000     0.768600000000     0.558000000000     0          
C2       C      0.874600000000     0.779700000000     0.579200000000     0          
C3       C      0.897900000000     0.804900000000     0.576400000000     0          
H1       H      0.897190000000     0.821250000000     0.558730000000     0          
Zr2      Zr     0.782240000000     0.717760000000     0.545500000000     0          
O1       O      0.761800000000     0.693600000000     0.500000000000     0          
O2       O      0.708480000000     0.661300000000     0.466340000000     0          
O3       O      0.758200000000     0.668600000000     0.436900000000     0          
C1       C      0.731400000000     0.652400000000     0.442000000000     0          
C2       C      0.720300000000     0.625400000000     0.420800000000     0          
C3       C      0.695100000000     0.602100000000     0.423600000000     0          
H1       H      0.678750000000     0.602810000000     0.441270000000     0          
Zr2      Zr     0.782240000000     0.717760000000     0.454500000000     0          
O1       O      0.806400000000     0.738200000000     0.500000000000     0          
S1       S      0.750140000000     0.610420000000     0.389580000000     0          
O2       O      0.838700000000     0.208480000000     0.466340000000     0          
O3       O      0.831400000000     0.258200000000     0.436900000000     0          
C1       C      0.847600000000     0.231400000000     0.442000000000     0          
C2       C      0.874600000000     0.220300000000     0.420800000000     0          
C3       C      0.897900000000     0.195100000000     0.423600000000     0          
H1       H      0.897190000000     0.178750000000     0.441270000000     0          
Zr2      Zr     0.782240000000     0.282240000000     0.454500000000     0          
O1       O      0.761800000000     0.306400000000     0.500000000000     0          
O2       O      0.291520000000     0.338700000000     0.466340000000     0          
O3       O      0.241800000000     0.331400000000     0.436900000000     0          
C1       C      0.268600000000     0.347600000000     0.442000000000     0          
C2       C      0.279700000000     0.374600000000     0.420800000000     0          
C3       C      0.304900000000     0.397900000000     0.423600000000     0          
H1       H      0.321250000000     0.397190000000     0.441270000000     0          
Zr2      Zr     0.217760000000     0.282240000000     0.454500000000     0          
O1       O      0.193600000000     0.261800000000     0.500000000000     0          
S1       S      0.249860000000     0.389580000000     0.389580000000     0          
O2       O      0.161300000000     0.791520000000     0.466340000000     0          
O3       O      0.168600000000     0.741800000000     0.436900000000     0          
C1       C      0.152400000000     0.768600000000     0.442000000000     0          
C2       C      0.125400000000     0.779700000000     0.420800000000     0          
C3       C      0.102100000000     0.804900000000     0.423600000000     0          
H1       H      0.102810000000     0.821250000000     0.441270000000     0          
Zr2      Zr     0.217760000000     0.717760000000     0.454500000000     0          
O1       O      0.238200000000     0.693600000000     0.500000000000     0          
O2       O      0.533660000000     0.208480000000     0.838700000000     0          
O3       O      0.563100000000     0.258200000000     0.831400000000     0          
C1       C      0.558000000000     0.231400000000     0.847600000000     0          
C2       C      0.579200000000     0.220300000000     0.874600000000     0          
C3       C      0.576400000000     0.195100000000     0.897900000000     0          
H1       H      0.558730000000     0.178750000000     0.897190000000     0          
Zr1      Zr     0.500000000000     0.205420000000     0.794580000000     0          
Zr2      Zr     0.545500000000     0.282240000000     0.782240000000     0          
O1       O      0.500000000000     0.306400000000     0.761800000000     0          
O6       O      0.548200000000     0.228000000000     0.772000000000     0          
O2       O      0.533660000000     0.791520000000     0.161300000000     0          
O3       O      0.563100000000     0.741800000000     0.168600000000     0          
C1       C      0.558000000000     0.768600000000     0.152400000000     0          
C2       C      0.579200000000     0.779700000000     0.125400000000     0          
C3       C      0.576400000000     0.804900000000     0.102100000000     0          
H1       H      0.558730000000     0.821250000000     0.102810000000     0          
Zr1      Zr     0.500000000000     0.794580000000     0.205420000000     0          
Zr2      Zr     0.545500000000     0.717760000000     0.217760000000     0          
O1       O      0.500000000000     0.693600000000     0.238200000000     0          
O6       O      0.548200000000     0.772000000000     0.228000000000     0          
O2       O      0.708480000000     0.033660000000     0.161300000000     0          
O3       O      0.758200000000     0.063100000000     0.168600000000     0          
C1       C      0.731400000000     0.058000000000     0.152400000000     0          
C2       C      0.720300000000     0.079200000000     0.125400000000     0          
C3       C      0.695100000000     0.076400000000     0.102100000000     0          
H1       H      0.678750000000     0.058730000000     0.102810000000     0          
Zr2      Zr     0.782240000000     0.045500000000     0.217760000000     0          
O1       O      0.806400000000     0.000000000000     0.238200000000     0          
S1       S      0.750140000000     0.110420000000     0.110420000000     0          
O2       O      0.466340000000     0.208480000000     0.161300000000     0          
O3       O      0.436900000000     0.258200000000     0.168600000000     0          
C1       C      0.442000000000     0.231400000000     0.152400000000     0          
C2       C      0.420800000000     0.220300000000     0.125400000000     0          
C3       C      0.423600000000     0.195100000000     0.102100000000     0          
H1       H      0.441270000000     0.178750000000     0.102810000000     0          
Zr1      Zr     0.500000000000     0.205420000000     0.205420000000     0          
Zr2      Zr     0.454500000000     0.282240000000     0.217760000000     0          
O1       O      0.500000000000     0.306400000000     0.238200000000     0          
O6       O      0.451800000000     0.228000000000     0.228000000000     0          
O2       O      0.291520000000     0.966340000000     0.161300000000     0          
O3       O      0.241800000000     0.936900000000     0.168600000000     0          
C1       C      0.268600000000     0.942000000000     0.152400000000     0          
C2       C      0.279700000000     0.920800000000     0.125400000000     0          
C3       C      0.304900000000     0.923600000000     0.102100000000     0          
H1       H      0.321250000000     0.941270000000     0.102810000000     0          
Zr2      Zr     0.217760000000     0.954500000000     0.217760000000     0          
O1       O      0.193600000000     0.000000000000     0.238200000000     0          
S1       S      0.249860000000     0.889580000000     0.110420000000     0          
O2       O      0.466340000000     0.791520000000     0.838700000000     0          
O3       O      0.436900000000     0.741800000000     0.831400000000     0          
C1       C      0.442000000000     0.768600000000     0.847600000000     0          
C2       C      0.420800000000     0.779700000000     0.874600000000     0          
C3       C      0.423600000000     0.804900000000     0.897900000000     0          
H1       H      0.441270000000     0.821250000000     0.897190000000     0          
Zr1      Zr     0.500000000000     0.794580000000     0.794580000000     0          
Zr2      Zr     0.454500000000     0.717760000000     0.782240000000     0          
O1       O      0.500000000000     0.693600000000     0.761800000000     0          
O6       O      0.451800000000     0.772000000000     0.772000000000     0          
O2       O      0.708480000000     0.966340000000     0.838700000000     0          
O3       O      0.758200000000     0.936900000000     0.831400000000     0          
C1       C      0.731400000000     0.942000000000     0.847600000000     0          
C2       C      0.720300000000     0.920800000000     0.874600000000     0          
C3       C      0.695100000000     0.923600000000     0.897900000000     0          
H1       H      0.678750000000     0.941270000000     0.897190000000     0          
Zr2      Zr     0.782240000000     0.954500000000     0.782240000000     0          
O1       O      0.806400000000     0.000000000000     0.761800000000     0          
S1       S      0.750140000000     0.889580000000     0.889580000000     0          
O2       O      0.291520000000     0.033660000000     0.838700000000     0          
O3       O      0.241800000000     0.063100000000     0.831400000000     0          
C1       C      0.268600000000     0.058000000000     0.847600000000     0          
C2       C      0.279700000000     0.079200000000     0.874600000000     0          
C3       C      0.304900000000     0.076400000000     0.897900000000     0          
H1       H      0.321250000000     0.058730000000     0.897190000000     0          
Zr2      Zr     0.217760000000     0.045500000000     0.782240000000     0          
O1       O      0.193600000000     0.000000000000     0.761800000000     0          
S1       S      0.249860000000     0.110420000000     0.889580000000     0          
O2       O      0.161300000000     0.966340000000     0.291520000000     0          
O3       O      0.168600000000     0.936900000000     0.241800000000     0          
C1       C      0.152400000000     0.942000000000     0.268600000000     0          
C2       C      0.125400000000     0.920800000000     0.279700000000     0          
C3       C      0.102100000000     0.923600000000     0.304900000000     0          
H1       H      0.102810000000     0.941270000000     0.321250000000     0          
O2       O      0.533660000000     0.661300000000     0.291520000000     0          
O3       O      0.563100000000     0.668600000000     0.241800000000     0          
C1       C      0.558000000000     0.652400000000     0.268600000000     0          
C2       C      0.579200000000     0.625400000000     0.279700000000     0          
C3       C      0.576400000000     0.602100000000     0.304900000000     0          
H1       H      0.558730000000     0.602810000000     0.321250000000     0          
O6       O      0.548200000000     0.728000000000     0.272000000000     0          
O2       O      0.838700000000     0.033660000000     0.291520000000     0          
O3       O      0.831400000000     0.063100000000     0.241800000000     0          
C1       C      0.847600000000     0.058000000000     0.268600000000     0          
C2       C      0.874600000000     0.079200000000     0.279700000000     0          
C3       C      0.897900000000     0.076400000000     0.304900000000     0          
H1       H      0.897190000000     0.058730000000     0.321250000000     0          
O2       O      0.466340000000     0.338700000000     0.291520000000     0          
O3       O      0.436900000000     0.331400000000     0.241800000000     0          
C1       C      0.442000000000     0.347600000000     0.268600000000     0          
C2       C      0.420800000000     0.374600000000     0.279700000000     0          
C3       C      0.423600000000     0.397900000000     0.304900000000     0          
H1       H      0.441270000000     0.397190000000     0.321250000000     0          
O6       O      0.451800000000     0.272000000000     0.272000000000     0          
O2       O      0.161300000000     0.033660000000     0.708480000000     0          
O3       O      0.168600000000     0.063100000000     0.758200000000     0          
C1       C      0.152400000000     0.058000000000     0.731400000000     0          
C2       C      0.125400000000     0.079200000000     0.720300000000     0          
C3       C      0.102100000000     0.076400000000     0.695100000000     0          
H1       H      0.102810000000     0.058730000000     0.678750000000     0          
O2       O      0.466340000000     0.661300000000     0.708480000000     0          
O3       O      0.436900000000     0.668600000000     0.758200000000     0          
C1       C      0.442000000000     0.652400000000     0.731400000000     0          
C2       C      0.420800000000     0.625400000000     0.720300000000     0          
C3       C      0.423600000000     0.602100000000     0.695100000000     0          
H1       H      0.441270000000     0.602810000000     0.678750000000     0          
O6       O      0.451800000000     0.728000000000     0.728000000000     0          
O2       O      0.838700000000     0.966340000000     0.708480000000     0          
O3       O      0.831400000000     0.936900000000     0.758200000000     0          
C1       C      0.847600000000     0.942000000000     0.731400000000     0          
C2       C      0.874600000000     0.920800000000     0.720300000000     0          
C3       C      0.897900000000     0.923600000000     0.695100000000     0          
H1       H      0.897190000000     0.941270000000     0.678750000000     0          
O2       O      0.533660000000     0.338700000000     0.708480000000     0          
O3       O      0.563100000000     0.331400000000     0.758200000000     0          
C1       C      0.558000000000     0.347600000000     0.731400000000     0          
C2       C      0.579200000000     0.374600000000     0.720300000000     0          
C3       C      0.576400000000     0.397900000000     0.695100000000     0          
H1       H      0.558730000000     0.397190000000     0.678750000000     0          
O6       O      0.548200000000     0.272000000000     0.728000000000     0          
O2       O      0.291520000000     0.661300000000     0.466340000000     0          
O3       O      0.241800000000     0.668600000000     0.436900000000     0          
C1       C      0.268600000000     0.652400000000     0.442000000000     0          
C2       C      0.279700000000     0.625400000000     0.420800000000     0          
C3       C      0.304900000000     0.602100000000     0.423600000000     0          
H1       H      0.321250000000     0.602810000000     0.441270000000     0          
S1       S      0.249860000000     0.610420000000     0.389580000000     0          
O2       O      0.838700000000     0.791520000000     0.466340000000     0          
O3       O      0.831400000000     0.741800000000     0.436900000000     0          
C1       C      0.847600000000     0.768600000000     0.442000000000     0          
C2       C      0.874600000000     0.779700000000     0.420800000000     0          
C3       C      0.897900000000     0.804900000000     0.423600000000     0          
H1       H      0.897190000000     0.821250000000     0.441270000000     0          
O2       O      0.708480000000     0.338700000000     0.466340000000     0          
O3       O      0.758200000000     0.331400000000     0.436900000000     0          
C1       C      0.731400000000     0.347600000000     0.442000000000     0          
C2       C      0.720300000000     0.374600000000     0.420800000000     0          
C3       C      0.695100000000     0.397900000000     0.423600000000     0          
H1       H      0.678750000000     0.397190000000     0.441270000000     0          
S1       S      0.750140000000     0.389580000000     0.389580000000     0          
O2       O      0.161300000000     0.208480000000     0.466340000000     0          
O3       O      0.168600000000     0.258200000000     0.436900000000     0          
C1       C      0.152400000000     0.231400000000     0.442000000000     0          
C2       C      0.125400000000     0.220300000000     0.420800000000     0          
C3       C      0.102100000000     0.195100000000     0.423600000000     0          
H1       H      0.102810000000     0.178750000000     0.441270000000     0          
O2       O      0.291520000000     0.338700000000     0.533660000000     0          
O3       O      0.241800000000     0.331400000000     0.563100000000     0          
C1       C      0.268600000000     0.347600000000     0.558000000000     0          
C2       C      0.279700000000     0.374600000000     0.579200000000     0          
C3       C      0.304900000000     0.397900000000     0.576400000000     0          
H1       H      0.321250000000     0.397190000000     0.558730000000     0          
S1       S      0.249860000000     0.389580000000     0.610420000000     0          
O2       O      0.161300000000     0.791520000000     0.533660000000     0          
O3       O      0.168600000000     0.741800000000     0.563100000000     0          
C1       C      0.152400000000     0.768600000000     0.558000000000     0          
C2       C      0.125400000000     0.779700000000     0.579200000000     0          
C3       C      0.102100000000     0.804900000000     0.576400000000     0          
H1       H      0.102810000000     0.821250000000     0.558730000000     0          
O2       O      0.708480000000     0.661300000000     0.533660000000     0          
O3       O      0.758200000000     0.668600000000     0.563100000000     0          
C1       C      0.731400000000     0.652400000000     0.558000000000     0          
C2       C      0.720300000000     0.625400000000     0.579200000000     0          
C3       C      0.695100000000     0.602100000000     0.576400000000     0          
H1       H      0.678750000000     0.602810000000     0.558730000000     0          
S1       S      0.750140000000     0.610420000000     0.610420000000     0          
O2       O      0.838700000000     0.208480000000     0.533660000000     0          
O3       O      0.831400000000     0.258200000000     0.563100000000     0          
C1       C      0.847600000000     0.231400000000     0.558000000000     0          
C2       C      0.874600000000     0.220300000000     0.579200000000     0          
C3       C      0.897900000000     0.195100000000     0.576400000000     0          
H1       H      0.897190000000     0.178750000000     0.558730000000     0          
O2       O      0.466340000000     0.791520000000     0.161300000000     0          
O3       O      0.436900000000     0.741800000000     0.168600000000     0          
C1       C      0.442000000000     0.768600000000     0.152400000000     0          
C2       C      0.420800000000     0.779700000000     0.125400000000     0          
C3       C      0.423600000000     0.804900000000     0.102100000000     0          
H1       H      0.441270000000     0.821250000000     0.102810000000     0          
O6       O      0.451800000000     0.772000000000     0.228000000000     0          
O2       O      0.466340000000     0.208480000000     0.838700000000     0          
O3       O      0.436900000000     0.258200000000     0.831400000000     0          
C1       C      0.442000000000     0.231400000000     0.847600000000     0          
C2       C      0.420800000000     0.220300000000     0.874600000000     0          
C3       C      0.423600000000     0.195100000000     0.897900000000     0          
H1       H      0.441270000000     0.178750000000     0.897190000000     0          
O6       O      0.451800000000     0.228000000000     0.772000000000     0          
O2       O      0.291520000000     0.966340000000     0.838700000000     0          
O3       O      0.241800000000     0.936900000000     0.831400000000     0          
C1       C      0.268600000000     0.942000000000     0.847600000000     0          
C2       C      0.279700000000     0.920800000000     0.874600000000     0          
C3       C      0.304900000000     0.923600000000     0.897900000000     0          
H1       H      0.321250000000     0.941270000000     0.897190000000     0          
S1       S      0.249860000000     0.889580000000     0.889580000000     0          
O2       O      0.533660000000     0.791520000000     0.838700000000     0          
O3       O      0.563100000000     0.741800000000     0.831400000000     0          
C1       C      0.558000000000     0.768600000000     0.847600000000     0          
C2       C      0.579200000000     0.779700000000     0.874600000000     0          
C3       C      0.576400000000     0.804900000000     0.897900000000     0          
H1       H      0.558730000000     0.821250000000     0.897190000000     0          
O6       O      0.548200000000     0.772000000000     0.772000000000     0          
O2       O      0.708480000000     0.033660000000     0.838700000000     0          
O3       O      0.758200000000     0.063100000000     0.831400000000     0          
C1       C      0.731400000000     0.058000000000     0.847600000000     0          
C2       C      0.720300000000     0.079200000000     0.874600000000     0          
C3       C      0.695100000000     0.076400000000     0.897900000000     0          
H1       H      0.678750000000     0.058730000000     0.897190000000     0          
S1       S      0.750140000000     0.110420000000     0.889580000000     0          
O2       O      0.533660000000     0.208480000000     0.161300000000     0          
O3       O      0.563100000000     0.258200000000     0.168600000000     0          
C1       C      0.558000000000     0.231400000000     0.152400000000     0          
C2       C      0.579200000000     0.220300000000     0.125400000000     0          
C3       C      0.576400000000     0.195100000000     0.102100000000     0          
H1       H      0.558730000000     0.178750000000     0.102810000000     0          
O6       O      0.548200000000     0.228000000000     0.228000000000     0          
O2       O      0.291520000000     0.033660000000     0.161300000000     0          
O3       O      0.241800000000     0.063100000000     0.168600000000     0          
C1       C      0.268600000000     0.058000000000     0.152400000000     0          
C2       C      0.279700000000     0.079200000000     0.125400000000     0          
C3       C      0.304900000000     0.076400000000     0.102100000000     0          
H1       H      0.321250000000     0.058730000000     0.102810000000     0          
S1       S      0.249860000000     0.110420000000     0.110420000000     0          
O2       O      0.708480000000     0.966340000000     0.161300000000     0          
O3       O      0.758200000000     0.936900000000     0.168600000000     0          
C1       C      0.731400000000     0.942000000000     0.152400000000     0          
C2       C      0.720300000000     0.920800000000     0.125400000000     0          
C3       C      0.695100000000     0.923600000000     0.102100000000     0          
H1       H      0.678750000000     0.941270000000     0.102810000000     0          
S1       S      0.750140000000     0.889580000000     0.110420000000     0          
O2       O      0.838700000000     0.533660000000     0.208480000000     0          
O3       O      0.831400000000     0.563100000000     0.258200000000     0          
C1       C      0.847600000000     0.558000000000     0.231400000000     0          
C2       C      0.874600000000     0.579200000000     0.220300000000     0          
C3       C      0.897900000000     0.576400000000     0.195100000000     0          
H1       H      0.897190000000     0.558730000000     0.178750000000     0          
Zr2      Zr     0.782240000000     0.545500000000     0.282240000000     0          
O1       O      0.761800000000     0.500000000000     0.306400000000     0          
O2       O      0.466340000000     0.838700000000     0.208480000000     0          
O3       O      0.436900000000     0.831400000000     0.258200000000     0          
C1       C      0.442000000000     0.847600000000     0.231400000000     0          
C2       C      0.420800000000     0.874600000000     0.220300000000     0          
C3       C      0.423600000000     0.897900000000     0.195100000000     0          
H1       H      0.441270000000     0.897190000000     0.178750000000     0          
Zr2      Zr     0.454500000000     0.782240000000     0.282240000000     0          
O1       O      0.500000000000     0.761800000000     0.306400000000     0          
O2       O      0.161300000000     0.466340000000     0.208480000000     0          
O3       O      0.168600000000     0.436900000000     0.258200000000     0          
C1       C      0.152400000000     0.442000000000     0.231400000000     0          
C2       C      0.125400000000     0.420800000000     0.220300000000     0          
C3       C      0.102100000000     0.423600000000     0.195100000000     0          
H1       H      0.102810000000     0.441270000000     0.178750000000     0          
Zr2      Zr     0.217760000000     0.454500000000     0.282240000000     0          
O1       O      0.238200000000     0.500000000000     0.306400000000     0          
O2       O      0.533660000000     0.161300000000     0.208480000000     0          
O3       O      0.563100000000     0.168600000000     0.258200000000     0          
C1       C      0.558000000000     0.152400000000     0.231400000000     0          
C2       C      0.579200000000     0.125400000000     0.220300000000     0          
C3       C      0.576400000000     0.102100000000     0.195100000000     0          
H1       H      0.558730000000     0.102810000000     0.178750000000     0          
Zr2      Zr     0.545500000000     0.217760000000     0.282240000000     0          
O1       O      0.500000000000     0.238200000000     0.306400000000     0          
O2       O      0.838700000000     0.466340000000     0.791520000000     0          
O3       O      0.831400000000     0.436900000000     0.741800000000     0          
C1       C      0.847600000000     0.442000000000     0.768600000000     0          
C2       C      0.874600000000     0.420800000000     0.779700000000     0          
C3       C      0.897900000000     0.423600000000     0.804900000000     0          
H1       H      0.897190000000     0.441270000000     0.821250000000     0          
Zr2      Zr     0.782240000000     0.454500000000     0.717760000000     0          
O1       O      0.761800000000     0.500000000000     0.693600000000     0          
O2       O      0.533660000000     0.838700000000     0.791520000000     0          
O3       O      0.563100000000     0.831400000000     0.741800000000     0          
C1       C      0.558000000000     0.847600000000     0.768600000000     0          
C2       C      0.579200000000     0.874600000000     0.779700000000     0          
C3       C      0.576400000000     0.897900000000     0.804900000000     0          
H1       H      0.558730000000     0.897190000000     0.821250000000     0          
Zr2      Zr     0.545500000000     0.782240000000     0.717760000000     0          
O1       O      0.500000000000     0.761800000000     0.693600000000     0          
O2       O      0.161300000000     0.533660000000     0.791520000000     0          
O3       O      0.168600000000     0.563100000000     0.741800000000     0          
C1       C      0.152400000000     0.558000000000     0.768600000000     0          
C2       C      0.125400000000     0.579200000000     0.779700000000     0          
C3       C      0.102100000000     0.576400000000     0.804900000000     0          
H1       H      0.102810000000     0.558730000000     0.821250000000     0          
Zr2      Zr     0.217760000000     0.545500000000     0.717760000000     0          
O1       O      0.238200000000     0.500000000000     0.693600000000     0          
O2       O      0.466340000000     0.161300000000     0.791520000000     0          
O3       O      0.436900000000     0.168600000000     0.741800000000     0          
C1       C      0.442000000000     0.152400000000     0.768600000000     0          
C2       C      0.420800000000     0.125400000000     0.779700000000     0          
C3       C      0.423600000000     0.102100000000     0.804900000000     0          
H1       H      0.441270000000     0.102810000000     0.821250000000     0          
Zr2      Zr     0.454500000000     0.217760000000     0.717760000000     0          
O1       O      0.500000000000     0.238200000000     0.693600000000     0          
O2       O      0.708480000000     0.838700000000     0.033660000000     0          
O3       O      0.758200000000     0.831400000000     0.063100000000     0          
C1       C      0.731400000000     0.847600000000     0.058000000000     0          
C2       C      0.720300000000     0.874600000000     0.079200000000     0          
C3       C      0.695100000000     0.897900000000     0.076400000000     0          
H1       H      0.678750000000     0.897190000000     0.058730000000     0          
Zr2      Zr     0.782240000000     0.782240000000     0.045500000000     0          
O1       O      0.806400000000     0.761800000000     0.000000000000     0          
O2       O      0.161300000000     0.708480000000     0.033660000000     0          
O3       O      0.168600000000     0.758200000000     0.063100000000     0          
C1       C      0.152400000000     0.731400000000     0.058000000000     0          
C2       C      0.125400000000     0.720300000000     0.079200000000     0          
C3       C      0.102100000000     0.695100000000     0.076400000000     0          
H1       H      0.102810000000     0.678750000000     0.058730000000     0          
Zr2      Zr     0.217760000000     0.782240000000     0.045500000000     0          
O1       O      0.238200000000     0.806400000000     0.000000000000     0          
O2       O      0.291520000000     0.161300000000     0.033660000000     0          
O3       O      0.241800000000     0.168600000000     0.063100000000     0          
C1       C      0.268600000000     0.152400000000     0.058000000000     0          
C2       C      0.279700000000     0.125400000000     0.079200000000     0          
C3       C      0.304900000000     0.102100000000     0.076400000000     0          
H1       H      0.321250000000     0.102810000000     0.058730000000     0          
Zr2      Zr     0.217760000000     0.217760000000     0.045500000000     0          
O1       O      0.193600000000     0.238200000000     0.000000000000     0          
O2       O      0.838700000000     0.291520000000     0.033660000000     0          
O3       O      0.831400000000     0.241800000000     0.063100000000     0          
C1       C      0.847600000000     0.268600000000     0.058000000000     0          
C2       C      0.874600000000     0.279700000000     0.079200000000     0          
C3       C      0.897900000000     0.304900000000     0.076400000000     0          
H1       H      0.897190000000     0.321250000000     0.058730000000     0          
Zr2      Zr     0.782240000000     0.217760000000     0.045500000000     0          
O1       O      0.761800000000     0.193600000000     0.000000000000     0          
O2       O      0.708480000000     0.161300000000     0.966340000000     0          
O3       O      0.758200000000     0.168600000000     0.936900000000     0          
C1       C      0.731400000000     0.152400000000     0.942000000000     0          
C2       C      0.720300000000     0.125400000000     0.920800000000     0          
C3       C      0.695100000000     0.102100000000     0.923600000000     0          
H1       H      0.678750000000     0.102810000000     0.941270000000     0          
Zr2      Zr     0.782240000000     0.217760000000     0.954500000000     0          
O1       O      0.806400000000     0.238200000000     0.000000000000     0          
O2       O      0.838700000000     0.708480000000     0.966340000000     0          
O3       O      0.831400000000     0.758200000000     0.936900000000     0          
C1       C      0.847600000000     0.731400000000     0.942000000000     0          
C2       C      0.874600000000     0.720300000000     0.920800000000     0          
C3       C      0.897900000000     0.695100000000     0.923600000000     0          
H1       H      0.897190000000     0.678750000000     0.941270000000     0          
Zr2      Zr     0.782240000000     0.782240000000     0.954500000000     0          
O1       O      0.761800000000     0.806400000000     0.000000000000     0          
O2       O      0.291520000000     0.838700000000     0.966340000000     0          
O3       O      0.241800000000     0.831400000000     0.936900000000     0          
C1       C      0.268600000000     0.847600000000     0.942000000000     0          
C2       C      0.279700000000     0.874600000000     0.920800000000     0          
C3       C      0.304900000000     0.897900000000     0.923600000000     0          
H1       H      0.321250000000     0.897190000000     0.941270000000     0          
Zr2      Zr     0.217760000000     0.782240000000     0.954500000000     0          
O1       O      0.193600000000     0.761800000000     0.000000000000     0          
O2       O      0.161300000000     0.291520000000     0.966340000000     0          
O3       O      0.168600000000     0.241800000000     0.936900000000     0          
C1       C      0.152400000000     0.268600000000     0.942000000000     0          
C2       C      0.125400000000     0.279700000000     0.920800000000     0          
C3       C      0.102100000000     0.304900000000     0.923600000000     0          
H1       H      0.102810000000     0.321250000000     0.941270000000     0          
Zr2      Zr     0.217760000000     0.217760000000     0.954500000000     0          
O1       O      0.238200000000     0.193600000000     0.000000000000     0          
O2       O      0.533660000000     0.708480000000     0.338700000000     0          
O3       O      0.563100000000     0.758200000000     0.331400000000     0          
C1       C      0.558000000000     0.731400000000     0.347600000000     0          
C2       C      0.579200000000     0.720300000000     0.374600000000     0          
C3       C      0.576400000000     0.695100000000     0.397900000000     0          
H1       H      0.558730000000     0.678750000000     0.397190000000     0          
Zr2      Zr     0.545500000000     0.782240000000     0.282240000000     0          
O1       O      0.500000000000     0.806400000000     0.261800000000     0          
O2       O      0.533660000000     0.291520000000     0.661300000000     0          
O3       O      0.563100000000     0.241800000000     0.668600000000     0          
C1       C      0.558000000000     0.268600000000     0.652400000000     0          
C2       C      0.579200000000     0.279700000000     0.625400000000     0          
C3       C      0.576400000000     0.304900000000     0.602100000000     0          
H1       H      0.558730000000     0.321250000000     0.602810000000     0          
Zr2      Zr     0.545500000000     0.217760000000     0.717760000000     0          
O1       O      0.500000000000     0.193600000000     0.738200000000     0          
O2       O      0.708480000000     0.533660000000     0.661300000000     0          
O3       O      0.758200000000     0.563100000000     0.668600000000     0          
C1       C      0.731400000000     0.558000000000     0.652400000000     0          
C2       C      0.720300000000     0.579200000000     0.625400000000     0          
C3       C      0.695100000000     0.576400000000     0.602100000000     0          
H1       H      0.678750000000     0.558730000000     0.602810000000     0          
Zr2      Zr     0.782240000000     0.545500000000     0.717760000000     0          
O1       O      0.806400000000     0.500000000000     0.738200000000     0          
O2       O      0.466340000000     0.708480000000     0.661300000000     0          
O3       O      0.436900000000     0.758200000000     0.668600000000     0          
C1       C      0.442000000000     0.731400000000     0.652400000000     0          
C2       C      0.420800000000     0.720300000000     0.625400000000     0          
C3       C      0.423600000000     0.695100000000     0.602100000000     0          
H1       H      0.441270000000     0.678750000000     0.602810000000     0          
Zr2      Zr     0.454500000000     0.782240000000     0.717760000000     0          
O1       O      0.500000000000     0.806400000000     0.738200000000     0          
O2       O      0.291520000000     0.466340000000     0.661300000000     0          
O3       O      0.241800000000     0.436900000000     0.668600000000     0          
C1       C      0.268600000000     0.442000000000     0.652400000000     0          
C2       C      0.279700000000     0.420800000000     0.625400000000     0          
C3       C      0.304900000000     0.423600000000     0.602100000000     0          
H1       H      0.321250000000     0.441270000000     0.602810000000     0          
Zr2      Zr     0.217760000000     0.454500000000     0.717760000000     0          
O1       O      0.193600000000     0.500000000000     0.738200000000     0          
O2       O      0.466340000000     0.291520000000     0.338700000000     0          
O3       O      0.436900000000     0.241800000000     0.331400000000     0          
C1       C      0.442000000000     0.268600000000     0.347600000000     0          
C2       C      0.420800000000     0.279700000000     0.374600000000     0          
C3       C      0.423600000000     0.304900000000     0.397900000000     0          
H1       H      0.441270000000     0.321250000000     0.397190000000     0          
Zr2      Zr     0.454500000000     0.217760000000     0.282240000000     0          
O1       O      0.500000000000     0.193600000000     0.261800000000     0          
O2       O      0.708480000000     0.466340000000     0.338700000000     0          
O3       O      0.758200000000     0.436900000000     0.331400000000     0          
C1       C      0.731400000000     0.442000000000     0.347600000000     0          
C2       C      0.720300000000     0.420800000000     0.374600000000     0          
C3       C      0.695100000000     0.423600000000     0.397900000000     0          
H1       H      0.678750000000     0.441270000000     0.397190000000     0          
Zr2      Zr     0.782240000000     0.454500000000     0.282240000000     0          
O1       O      0.806400000000     0.500000000000     0.261800000000     0          
O2       O      0.291520000000     0.533660000000     0.338700000000     0          
O3       O      0.241800000000     0.563100000000     0.331400000000     0          
C1       C      0.268600000000     0.558000000000     0.347600000000     0          
C2       C      0.279700000000     0.579200000000     0.374600000000     0          
C3       C      0.304900000000     0.576400000000     0.397900000000     0          
H1       H      0.321250000000     0.558730000000     0.397190000000     0          
Zr2      Zr     0.217760000000     0.545500000000     0.282240000000     0          
O1       O      0.193600000000     0.500000000000     0.261800000000     0          
O2       O      0.161300000000     0.466340000000     0.791520000000     0          
O3       O      0.168600000000     0.436900000000     0.741800000000     0          
C1       C      0.152400000000     0.442000000000     0.768600000000     0          
C2       C      0.125400000000     0.420800000000     0.779700000000     0          
C3       C      0.102100000000     0.423600000000     0.804900000000     0          
H1       H      0.102810000000     0.441270000000     0.821250000000     0          
O2       O      0.533660000000     0.161300000000     0.791520000000     0          
O3       O      0.563100000000     0.168600000000     0.741800000000     0          
C1       C      0.558000000000     0.152400000000     0.768600000000     0          
C2       C      0.579200000000     0.125400000000     0.779700000000     0          
C3       C      0.576400000000     0.102100000000     0.804900000000     0          
H1       H      0.558730000000     0.102810000000     0.821250000000     0          
O2       O      0.838700000000     0.533660000000     0.791520000000     0          
O3       O      0.831400000000     0.563100000000     0.741800000000     0          
C1       C      0.847600000000     0.558000000000     0.768600000000     0          
C2       C      0.874600000000     0.579200000000     0.779700000000     0          
C3       C      0.897900000000     0.576400000000     0.804900000000     0          
H1       H      0.897190000000     0.558730000000     0.821250000000     0          
O2       O      0.466340000000     0.838700000000     0.791520000000     0          
O3       O      0.436900000000     0.831400000000     0.741800000000     0          
C1       C      0.442000000000     0.847600000000     0.768600000000     0          
C2       C      0.420800000000     0.874600000000     0.779700000000     0          
C3       C      0.423600000000     0.897900000000     0.804900000000     0          
H1       H      0.441270000000     0.897190000000     0.821250000000     0          
O2       O      0.161300000000     0.533660000000     0.208480000000     0          
O3       O      0.168600000000     0.563100000000     0.258200000000     0          
C1       C      0.152400000000     0.558000000000     0.231400000000     0          
C2       C      0.125400000000     0.579200000000     0.220300000000     0          
C3       C      0.102100000000     0.576400000000     0.195100000000     0          
H1       H      0.102810000000     0.558730000000     0.178750000000     0          
O2       O      0.466340000000     0.161300000000     0.208480000000     0          
O3       O      0.436900000000     0.168600000000     0.258200000000     0          
C1       C      0.442000000000     0.152400000000     0.231400000000     0          
C2       C      0.420800000000     0.125400000000     0.220300000000     0          
C3       C      0.423600000000     0.102100000000     0.195100000000     0          
H1       H      0.441270000000     0.102810000000     0.178750000000     0          
O2       O      0.838700000000     0.466340000000     0.208480000000     0          
O3       O      0.831400000000     0.436900000000     0.258200000000     0          
C1       C      0.847600000000     0.442000000000     0.231400000000     0          
C2       C      0.874600000000     0.420800000000     0.220300000000     0          
C3       C      0.897900000000     0.423600000000     0.195100000000     0          
H1       H      0.897190000000     0.441270000000     0.178750000000     0          
O2       O      0.533660000000     0.838700000000     0.208480000000     0          
O3       O      0.563100000000     0.831400000000     0.258200000000     0          
C1       C      0.558000000000     0.847600000000     0.231400000000     0          
C2       C      0.579200000000     0.874600000000     0.220300000000     0          
C3       C      0.576400000000     0.897900000000     0.195100000000     0          
H1       H      0.558730000000     0.897190000000     0.178750000000     0          
O2       O      0.291520000000     0.161300000000     0.966340000000     0          
O3       O      0.241800000000     0.168600000000     0.936900000000     0          
C1       C      0.268600000000     0.152400000000     0.942000000000     0          
C2       C      0.279700000000     0.125400000000     0.920800000000     0          
C3       C      0.304900000000     0.102100000000     0.923600000000     0          
H1       H      0.321250000000     0.102810000000     0.941270000000     0          
O2       O      0.838700000000     0.291520000000     0.966340000000     0          
O3       O      0.831400000000     0.241800000000     0.936900000000     0          
C1       C      0.847600000000     0.268600000000     0.942000000000     0          
C2       C      0.874600000000     0.279700000000     0.920800000000     0          
C3       C      0.897900000000     0.304900000000     0.923600000000     0          
H1       H      0.897190000000     0.321250000000     0.941270000000     0          
O2       O      0.708480000000     0.838700000000     0.966340000000     0          
O3       O      0.758200000000     0.831400000000     0.936900000000     0          
C1       C      0.731400000000     0.847600000000     0.942000000000     0          
C2       C      0.720300000000     0.874600000000     0.920800000000     0          
C3       C      0.695100000000     0.897900000000     0.923600000000     0          
H1       H      0.678750000000     0.897190000000     0.941270000000     0          
O2       O      0.161300000000     0.708480000000     0.966340000000     0          
O3       O      0.168600000000     0.758200000000     0.936900000000     0          
C1       C      0.152400000000     0.731400000000     0.942000000000     0          
C2       C      0.125400000000     0.720300000000     0.920800000000     0          
C3       C      0.102100000000     0.695100000000     0.923600000000     0          
H1       H      0.102810000000     0.678750000000     0.941270000000     0          
O2       O      0.291520000000     0.838700000000     0.033660000000     0          
O3       O      0.241800000000     0.831400000000     0.063100000000     0          
C1       C      0.268600000000     0.847600000000     0.058000000000     0          
C2       C      0.279700000000     0.874600000000     0.079200000000     0          
C3       C      0.304900000000     0.897900000000     0.076400000000     0          
H1       H      0.321250000000     0.897190000000     0.058730000000     0          
O2       O      0.161300000000     0.291520000000     0.033660000000     0          
O3       O      0.168600000000     0.241800000000     0.063100000000     0          
C1       C      0.152400000000     0.268600000000     0.058000000000     0          
C2       C      0.125400000000     0.279700000000     0.079200000000     0          
C3       C      0.102100000000     0.304900000000     0.076400000000     0          
H1       H      0.102810000000     0.321250000000     0.058730000000     0          
O2       O      0.708480000000     0.161300000000     0.033660000000     0          
O3       O      0.758200000000     0.168600000000     0.063100000000     0          
C1       C      0.731400000000     0.152400000000     0.058000000000     0          
C2       C      0.720300000000     0.125400000000     0.079200000000     0          
C3       C      0.695100000000     0.102100000000     0.076400000000     0          
H1       H      0.678750000000     0.102810000000     0.058730000000     0          
O2       O      0.838700000000     0.708480000000     0.033660000000     0          
O3       O      0.831400000000     0.758200000000     0.063100000000     0          
C1       C      0.847600000000     0.731400000000     0.058000000000     0          
C2       C      0.874600000000     0.720300000000     0.079200000000     0          
C3       C      0.897900000000     0.695100000000     0.076400000000     0          
H1       H      0.897190000000     0.678750000000     0.058730000000     0          
O2       O      0.466340000000     0.291520000000     0.661300000000     0          
O3       O      0.436900000000     0.241800000000     0.668600000000     0          
C1       C      0.442000000000     0.268600000000     0.652400000000     0          
C2       C      0.420800000000     0.279700000000     0.625400000000     0          
C3       C      0.423600000000     0.304900000000     0.602100000000     0          
H1       H      0.441270000000     0.321250000000     0.602810000000     0          
O2       O      0.466340000000     0.708480000000     0.338700000000     0          
O3       O      0.436900000000     0.758200000000     0.331400000000     0          
C1       C      0.442000000000     0.731400000000     0.347600000000     0          
C2       C      0.420800000000     0.720300000000     0.374600000000     0          
C3       C      0.423600000000     0.695100000000     0.397900000000     0          
H1       H      0.441270000000     0.678750000000     0.397190000000     0          
O2       O      0.291520000000     0.466340000000     0.338700000000     0          
O3       O      0.241800000000     0.436900000000     0.331400000000     0          
C1       C      0.268600000000     0.442000000000     0.347600000000     0          
C2       C      0.279700000000     0.420800000000     0.374600000000     0          
C3       C      0.304900000000     0.423600000000     0.397900000000     0          
H1       H      0.321250000000     0.441270000000     0.397190000000     0          
O2       O      0.533660000000     0.291520000000     0.338700000000     0          
O3       O      0.563100000000     0.241800000000     0.331400000000     0          
C1       C      0.558000000000     0.268600000000     0.347600000000     0          
C2       C      0.579200000000     0.279700000000     0.374600000000     0          
C3       C      0.576400000000     0.304900000000     0.397900000000     0          
H1       H      0.558730000000     0.321250000000     0.397190000000     0          
O2       O      0.708480000000     0.533660000000     0.338700000000     0          
O3       O      0.758200000000     0.563100000000     0.331400000000     0          
C1       C      0.731400000000     0.558000000000     0.347600000000     0          
C2       C      0.720300000000     0.579200000000     0.374600000000     0          
C3       C      0.695100000000     0.576400000000     0.397900000000     0          
H1       H      0.678750000000     0.558730000000     0.397190000000     0          
O2       O      0.533660000000     0.708480000000     0.661300000000     0          
O3       O      0.563100000000     0.758200000000     0.668600000000     0          
C1       C      0.558000000000     0.731400000000     0.652400000000     0          
C2       C      0.579200000000     0.720300000000     0.625400000000     0          
C3       C      0.576400000000     0.695100000000     0.602100000000     0          
H1       H      0.558730000000     0.678750000000     0.602810000000     0          
O2       O      0.291520000000     0.533660000000     0.661300000000     0          
O3       O      0.241800000000     0.563100000000     0.668600000000     0          
C1       C      0.268600000000     0.558000000000     0.652400000000     0          
C2       C      0.279700000000     0.579200000000     0.625400000000     0          
C3       C      0.304900000000     0.576400000000     0.602100000000     0          
H1       H      0.321250000000     0.558730000000     0.602810000000     0          
O2       O      0.708480000000     0.466340000000     0.661300000000     0          
O3       O      0.758200000000     0.436900000000     0.668600000000     0          
C1       C      0.731400000000     0.442000000000     0.652400000000     0          
C2       C      0.720300000000     0.420800000000     0.625400000000     0          
C3       C      0.695100000000     0.423600000000     0.602100000000     0          
H1       H      0.678750000000     0.441270000000     0.602810000000     0          


