data_ISEMUQ

_audit_creation_method RASPA-1.0
_audit_creation_date 2020-11-2
_audit_author_name 'Rocio Bueno-Perez'

_cell_length_a    26.917
_cell_length_b    26.917
_cell_length_c    26.917
_cell_angle_alpha 90
_cell_angle_beta  90
_cell_angle_gamma 90
_cell_volume      19502

_symmetry_cell_setting          triclinic
_symmetry_space_group_name_Hall 'P 1'
_symmetry_space_group_name_H-M  'P 1'
_symmetry_Int_Tables_number     1

_symmetry_equiv_pos_as_xyz 'x,y,z'

loop_
_atom_site_label
_atom_site_type_symbol
_atom_site_fract_x
_atom_site_fract_y
_atom_site_fract_z
_atom_site_charge
Zr1      Zr     0.408290000000     0.000000000000     0.000000000000     0          
Zr2      Zr     0.408290000000     0.500000000000     0.500000000000     0          
Zr3      Zr     0.908290000000     0.000000000000     0.500000000000     0          
Zr4      Zr     0.908290000000     0.500000000000     0.000000000000     0          
Zr5      Zr     0.591710000000     0.000000000000     0.000000000000     0          
Zr6      Zr     0.591710000000     0.500000000000     0.500000000000     0          
Zr7      Zr     0.091710000000     0.000000000000     0.500000000000     0          
Zr8      Zr     0.091710000000     0.500000000000     0.000000000000     0          
Zr9      Zr     0.000000000000     0.408290000000     0.000000000000     0          
Zr10     Zr     0.000000000000     0.908290000000     0.500000000000     0          
Zr11     Zr     0.500000000000     0.408290000000     0.500000000000     0          
Zr12     Zr     0.500000000000     0.908290000000     0.000000000000     0          
Zr13     Zr     0.000000000000     0.591710000000     0.000000000000     0          
Zr14     Zr     0.000000000000     0.091710000000     0.500000000000     0          
Zr15     Zr     0.500000000000     0.591710000000     0.500000000000     0          
Zr16     Zr     0.500000000000     0.091710000000     0.000000000000     0          
Zr17     Zr     0.000000000000     0.000000000000     0.408290000000     0          
Zr18     Zr     0.000000000000     0.500000000000     0.908290000000     0          
Zr19     Zr     0.500000000000     0.000000000000     0.908290000000     0          
Zr20     Zr     0.500000000000     0.500000000000     0.408290000000     0          
Zr21     Zr     0.000000000000     0.000000000000     0.591710000000     0          
Zr22     Zr     0.000000000000     0.500000000000     0.091710000000     0          
Zr23     Zr     0.500000000000     0.000000000000     0.091710000000     0          
Zr24     Zr     0.500000000000     0.500000000000     0.591710000000     0          
O25      O      0.454900000000     0.045100000000     0.045100000000     0          
O26      O      0.454900000000     0.545100000000     0.545100000000     0          
O27      O      0.545100000000     0.954900000000     0.045100000000     0          
O28      O      0.545100000000     0.454900000000     0.545100000000     0          
O29      O      0.045100000000     0.454900000000     0.045100000000     0          
O30      O      0.545100000000     0.045100000000     0.954900000000     0          
O31      O      0.545100000000     0.545100000000     0.454900000000     0          
O32      O      0.045100000000     0.045100000000     0.454900000000     0          
O33      O      0.454900000000     0.954900000000     0.954900000000     0          
O34      O      0.454900000000     0.454900000000     0.454900000000     0          
O35      O      0.045100000000     0.545100000000     0.954900000000     0          
O36      O      0.954900000000     0.545100000000     0.045100000000     0          
O37      O      0.954900000000     0.454900000000     0.954900000000     0          
O38      O      0.954900000000     0.045100000000     0.545100000000     0          
O39      O      0.045100000000     0.954900000000     0.545100000000     0          
O40      O      0.954900000000     0.954900000000     0.454900000000     0          
O41      O      0.045100000000     0.454900000000     0.954900000000     0          
O42      O      0.954900000000     0.545100000000     0.954900000000     0          
O43      O      0.954900000000     0.045100000000     0.454900000000     0          
O44      O      0.454900000000     0.045100000000     0.954900000000     0          
O45      O      0.045100000000     0.545100000000     0.045100000000     0          
O46      O      0.954900000000     0.454900000000     0.045100000000     0          
O47      O      0.454900000000     0.454900000000     0.545100000000     0          
O48      O      0.454900000000     0.545100000000     0.454900000000     0          
O49      O      0.545100000000     0.045100000000     0.045100000000     0          
O50      O      0.545100000000     0.545100000000     0.545100000000     0          
O51      O      0.545100000000     0.954900000000     0.954900000000     0          
O52      O      0.545100000000     0.454900000000     0.454900000000     0          
O53      O      0.045100000000     0.954900000000     0.454900000000     0          
O54      O      0.454900000000     0.954900000000     0.045100000000     0          
O55      O      0.045100000000     0.045100000000     0.545100000000     0          
O56      O      0.954900000000     0.954900000000     0.545100000000     0          
O57      O      0.368040000000     0.000000000000     0.071180000000     0          
H58      H      0.354700000000     0.000000000000     0.189800000000     0          
C59      C      0.293900000000     0.000000000000     0.145700000000     0          
H60      H      0.281300000000     0.000000000000     0.112100000000     0          
C61      C      0.262400000000     0.000000000000     0.191700000000     0          
C62      C      0.213700000000     0.000000000000     0.174400000000     0          
H63      H      0.207400000000     0.000000000000     0.140500000000     0          
C64      C      0.174500000000     0.000000000000     0.208000000000     0          
H65      H      0.141900000000     0.000000000000     0.196400000000     0          
C66      C      0.183900000000     0.000000000000     0.258700000000     0          
C67      C      0.232600000000     0.000000000000     0.276000000000     0          
H68      H      0.238900000000     0.000000000000     0.309900000000     0          
C69      C      0.271900000000     0.000000000000     0.242400000000     0          
H70      H      0.304400000000     0.000000000000     0.254000000000     0          
O71      O      0.368040000000     0.500000000000     0.571180000000     0          
H72      H      0.354700000000     0.500000000000     0.689800000000     0          
C73      C      0.293900000000     0.500000000000     0.645700000000     0          
H74      H      0.281300000000     0.500000000000     0.612100000000     0          
C75      C      0.262400000000     0.500000000000     0.691700000000     0          
C76      C      0.213700000000     0.500000000000     0.674400000000     0          
H77      H      0.207400000000     0.500000000000     0.640500000000     0          
C78      C      0.174500000000     0.500000000000     0.708000000000     0          
H79      H      0.141900000000     0.500000000000     0.696400000000     0          
C80      C      0.183900000000     0.500000000000     0.758700000000     0          
C81      C      0.232600000000     0.500000000000     0.776000000000     0          
H82      H      0.238900000000     0.500000000000     0.809900000000     0          
C83      C      0.271900000000     0.500000000000     0.742400000000     0          
H84      H      0.304400000000     0.500000000000     0.754000000000     0          
O85      O      0.868040000000     0.000000000000     0.571180000000     0          
O86      O      0.868040000000     0.500000000000     0.071180000000     0          
H87      H      0.854700000000     0.500000000000     0.189800000000     0          
C88      C      0.793900000000     0.500000000000     0.145700000000     0          
H89      H      0.781300000000     0.500000000000     0.112100000000     0          
O90      O      0.631960000000     0.000000000000     0.071180000000     0          
H91      H      0.645300000000     0.000000000000     0.189800000000     0          
C92      C      0.706100000000     0.000000000000     0.145700000000     0          
H93      H      0.718700000000     0.000000000000     0.112100000000     0          
C94      C      0.737600000000     0.000000000000     0.191700000000     0          
C95      C      0.786300000000     0.000000000000     0.174400000000     0          
H96      H      0.792600000000     0.000000000000     0.140500000000     0          
C97      C      0.825500000000     0.000000000000     0.208000000000     0          
H98      H      0.858100000000     0.000000000000     0.196400000000     0          
C99      C      0.816100000000     0.000000000000     0.258700000000     0          
C100     C      0.767400000000     0.000000000000     0.276000000000     0          
H101     H      0.761100000000     0.000000000000     0.309900000000     0          
C102     C      0.728100000000     0.000000000000     0.242400000000     0          
H103     H      0.695600000000     0.000000000000     0.254000000000     0          
O104     O      0.631960000000     0.500000000000     0.571180000000     0          
H105     H      0.645300000000     0.500000000000     0.689800000000     0          
C106     C      0.706100000000     0.500000000000     0.645700000000     0          
H107     H      0.718700000000     0.500000000000     0.612100000000     0          
C108     C      0.737600000000     0.500000000000     0.691700000000     0          
C109     C      0.786300000000     0.500000000000     0.674400000000     0          
H110     H      0.792600000000     0.500000000000     0.640500000000     0          
C111     C      0.825500000000     0.500000000000     0.708000000000     0          
H112     H      0.858100000000     0.500000000000     0.696400000000     0          
C113     C      0.816100000000     0.500000000000     0.758700000000     0          
C114     C      0.767400000000     0.500000000000     0.776000000000     0          
H115     H      0.761100000000     0.500000000000     0.809900000000     0          
C116     C      0.728100000000     0.500000000000     0.742400000000     0          
H117     H      0.695600000000     0.500000000000     0.754000000000     0          
O118     O      0.131960000000     0.000000000000     0.571180000000     0          
H119     H      0.145300000000     0.000000000000     0.689800000000     0          
C120     C      0.206100000000     0.000000000000     0.645700000000     0          
H121     H      0.218700000000     0.000000000000     0.612100000000     0          
C122     C      0.237600000000     0.000000000000     0.691700000000     0          
C123     C      0.286300000000     0.000000000000     0.674400000000     0          
H124     H      0.292600000000     0.000000000000     0.640500000000     0          
C125     C      0.325500000000     0.000000000000     0.708000000000     0          
H126     H      0.358100000000     0.000000000000     0.696400000000     0          
C127     C      0.316100000000     0.000000000000     0.758700000000     0          
C128     C      0.267400000000     0.000000000000     0.776000000000     0          
H129     H      0.261100000000     0.000000000000     0.809900000000     0          
C130     C      0.228100000000     0.000000000000     0.742400000000     0          
H131     H      0.195600000000     0.000000000000     0.754000000000     0          
O132     O      0.131960000000     0.500000000000     0.071180000000     0          
H133     H      0.145300000000     0.500000000000     0.189800000000     0          
C134     C      0.206100000000     0.500000000000     0.145700000000     0          
H135     H      0.218700000000     0.500000000000     0.112100000000     0          
O136     O      0.631960000000     0.000000000000     0.928820000000     0          
H137     H      0.645300000000     0.000000000000     0.810200000000     0          
C138     C      0.706100000000     0.000000000000     0.854300000000     0          
H139     H      0.718700000000     0.000000000000     0.887900000000     0          
O140     O      0.631960000000     0.500000000000     0.428820000000     0          
O141     O      0.131960000000     0.000000000000     0.428820000000     0          
O142     O      0.131960000000     0.500000000000     0.928820000000     0          
O143     O      0.368040000000     0.000000000000     0.928820000000     0          
O144     O      0.368040000000     0.500000000000     0.428820000000     0          
O145     O      0.868040000000     0.000000000000     0.428820000000     0          
O146     O      0.868040000000     0.500000000000     0.928820000000     0          
O147     O      0.071180000000     0.368040000000     0.000000000000     0          
O148     O      0.071180000000     0.868040000000     0.500000000000     0          
O149     O      0.571180000000     0.368040000000     0.500000000000     0          
O150     O      0.571180000000     0.868040000000     0.000000000000     0          
O151     O      0.071180000000     0.631960000000     0.000000000000     0          
H152     H      0.189800000000     0.645300000000     0.000000000000     0          
C153     C      0.145700000000     0.706100000000     0.000000000000     0          
H154     H      0.112100000000     0.718700000000     0.000000000000     0          
C155     C      0.191700000000     0.737600000000     0.000000000000     0          
C156     C      0.174400000000     0.786300000000     0.000000000000     0          
H157     H      0.140500000000     0.792600000000     0.000000000000     0          
C158     C      0.208000000000     0.825500000000     0.000000000000     0          
H159     H      0.196400000000     0.858100000000     0.000000000000     0          
C160     C      0.258700000000     0.816100000000     0.000000000000     0          
C161     C      0.276000000000     0.767400000000     0.000000000000     0          
H162     H      0.309900000000     0.761100000000     0.000000000000     0          
C163     C      0.242400000000     0.728100000000     0.000000000000     0          
H164     H      0.254000000000     0.695600000000     0.000000000000     0          
O165     O      0.071180000000     0.131960000000     0.500000000000     0          
O166     O      0.571180000000     0.631960000000     0.500000000000     0          
O167     O      0.571180000000     0.131960000000     0.000000000000     0          
H168     H      0.689800000000     0.145300000000     0.000000000000     0          
C169     C      0.645700000000     0.206100000000     0.000000000000     0          
H170     H      0.612100000000     0.218700000000     0.000000000000     0          
O171     O      0.928820000000     0.631960000000     0.000000000000     0          
H172     H      0.810200000000     0.645300000000     0.000000000000     0          
C173     C      0.854300000000     0.706100000000     0.000000000000     0          
H174     H      0.887900000000     0.718700000000     0.000000000000     0          
O175     O      0.928820000000     0.131960000000     0.500000000000     0          
H176     H      0.810200000000     0.145300000000     0.500000000000     0          
C177     C      0.854300000000     0.206100000000     0.500000000000     0          
H178     H      0.887900000000     0.218700000000     0.500000000000     0          
C179     C      0.808300000000     0.237600000000     0.500000000000     0          
C180     C      0.825600000000     0.286300000000     0.500000000000     0          
H181     H      0.859500000000     0.292600000000     0.500000000000     0          
C182     C      0.792000000000     0.325500000000     0.500000000000     0          
H183     H      0.803600000000     0.358100000000     0.500000000000     0          
C184     C      0.741300000000     0.316100000000     0.500000000000     0          
C185     C      0.724000000000     0.267400000000     0.500000000000     0          
H186     H      0.690100000000     0.261100000000     0.500000000000     0          
C187     C      0.757600000000     0.228100000000     0.500000000000     0          
H188     H      0.746000000000     0.195600000000     0.500000000000     0          
O189     O      0.428820000000     0.631960000000     0.500000000000     0          
H190     H      0.310200000000     0.645300000000     0.500000000000     0          
C191     C      0.354300000000     0.706100000000     0.500000000000     0          
H192     H      0.387900000000     0.718700000000     0.500000000000     0          
O193     O      0.428820000000     0.131960000000     0.000000000000     0          
H194     H      0.310200000000     0.145300000000     0.000000000000     0          
C195     C      0.354300000000     0.206100000000     0.000000000000     0          
H196     H      0.387900000000     0.218700000000     0.000000000000     0          
C197     C      0.308300000000     0.237600000000     0.000000000000     0          
C198     C      0.325600000000     0.286300000000     0.000000000000     0          
H199     H      0.359500000000     0.292600000000     0.000000000000     0          
C200     C      0.292000000000     0.325500000000     0.000000000000     0          
H201     H      0.303600000000     0.358100000000     0.000000000000     0          
C202     C      0.241300000000     0.316100000000     0.000000000000     0          
C203     C      0.224000000000     0.267400000000     0.000000000000     0          
H204     H      0.190100000000     0.261100000000     0.000000000000     0          
C205     C      0.257600000000     0.228100000000     0.000000000000     0          
H206     H      0.246000000000     0.195600000000     0.000000000000     0          
O207     O      0.928820000000     0.368040000000     0.000000000000     0          
O208     O      0.928820000000     0.868040000000     0.500000000000     0          
H209     H      0.810200000000     0.854700000000     0.500000000000     0          
C210     C      0.854300000000     0.793900000000     0.500000000000     0          
H211     H      0.887900000000     0.781300000000     0.500000000000     0          
C212     C      0.808300000000     0.762400000000     0.500000000000     0          
C213     C      0.825600000000     0.713700000000     0.500000000000     0          
H214     H      0.859500000000     0.707400000000     0.500000000000     0          
C215     C      0.792000000000     0.674500000000     0.500000000000     0          
H216     H      0.803600000000     0.641900000000     0.500000000000     0          
C217     C      0.741300000000     0.683900000000     0.500000000000     0          
C218     C      0.724000000000     0.732600000000     0.500000000000     0          
H219     H      0.690100000000     0.738900000000     0.500000000000     0          
C220     C      0.757600000000     0.771900000000     0.500000000000     0          
H221     H      0.746000000000     0.804400000000     0.500000000000     0          
O222     O      0.428820000000     0.368040000000     0.500000000000     0          
H223     H      0.310200000000     0.354700000000     0.500000000000     0          
C224     C      0.354300000000     0.293900000000     0.500000000000     0          
H225     H      0.387900000000     0.281300000000     0.500000000000     0          
C226     C      0.308300000000     0.262400000000     0.500000000000     0          
C227     C      0.325600000000     0.213700000000     0.500000000000     0          
H228     H      0.359500000000     0.207400000000     0.500000000000     0          
C229     C      0.292000000000     0.174500000000     0.500000000000     0          
H230     H      0.303600000000     0.141900000000     0.500000000000     0          
C231     C      0.241300000000     0.183900000000     0.500000000000     0          
C232     C      0.224000000000     0.232600000000     0.500000000000     0          
H233     H      0.190100000000     0.238900000000     0.500000000000     0          
C234     C      0.257600000000     0.271900000000     0.500000000000     0          
H235     H      0.246000000000     0.304400000000     0.500000000000     0          
O236     O      0.428820000000     0.868040000000     0.000000000000     0          
O237     O      0.000000000000     0.071180000000     0.368040000000     0          
O238     O      0.000000000000     0.571180000000     0.868040000000     0          
O239     O      0.500000000000     0.071180000000     0.868040000000     0          
H240     H      0.500000000000     0.189800000000     0.854700000000     0          
C241     C      0.500000000000     0.145700000000     0.793900000000     0          
H242     H      0.500000000000     0.112100000000     0.781300000000     0          
C243     C      0.500000000000     0.191700000000     0.762400000000     0          
C244     C      0.500000000000     0.174400000000     0.713700000000     0          
H245     H      0.500000000000     0.140500000000     0.707400000000     0          
C246     C      0.500000000000     0.208000000000     0.674500000000     0          
H247     H      0.500000000000     0.196400000000     0.641900000000     0          
C248     C      0.500000000000     0.258700000000     0.683900000000     0          
C249     C      0.500000000000     0.276000000000     0.732600000000     0          
H250     H      0.500000000000     0.309900000000     0.738900000000     0          
H251     H      0.500000000000     0.254000000000     0.804400000000     0          
O252     O      0.500000000000     0.571180000000     0.368040000000     0          
H253     H      0.500000000000     0.689800000000     0.354700000000     0          
C254     C      0.500000000000     0.645700000000     0.293900000000     0          
H255     H      0.500000000000     0.612100000000     0.281300000000     0          
C256     C      0.500000000000     0.691700000000     0.262400000000     0          
C257     C      0.500000000000     0.674400000000     0.213700000000     0          
H258     H      0.500000000000     0.640500000000     0.207400000000     0          
C259     C      0.500000000000     0.708000000000     0.174500000000     0          
H260     H      0.500000000000     0.696400000000     0.141900000000     0          
C261     C      0.500000000000     0.758700000000     0.183900000000     0          
C262     C      0.500000000000     0.776000000000     0.232600000000     0          
H263     H      0.500000000000     0.809900000000     0.238900000000     0          
C264     C      0.500000000000     0.742400000000     0.271900000000     0          
H265     H      0.500000000000     0.754000000000     0.304400000000     0          
O266     O      0.000000000000     0.071180000000     0.631960000000     0          
O267     O      0.000000000000     0.571180000000     0.131960000000     0          
O268     O      0.500000000000     0.071180000000     0.131960000000     0          
H269     H      0.500000000000     0.189800000000     0.145300000000     0          
C270     C      0.500000000000     0.145700000000     0.206100000000     0          
H271     H      0.500000000000     0.112100000000     0.218700000000     0          
O272     O      0.500000000000     0.571180000000     0.631960000000     0          
O273     O      0.000000000000     0.928820000000     0.631960000000     0          
H274     H      0.000000000000     0.810200000000     0.645300000000     0          
C275     C      0.000000000000     0.854300000000     0.706100000000     0          
H276     H      0.000000000000     0.887900000000     0.718700000000     0          
O277     O      0.000000000000     0.428820000000     0.131960000000     0          
H278     H      0.000000000000     0.310200000000     0.145300000000     0          
C279     C      0.000000000000     0.354300000000     0.206100000000     0          
H280     H      0.000000000000     0.387900000000     0.218700000000     0          
C281     C      0.000000000000     0.308300000000     0.237600000000     0          
C282     C      0.000000000000     0.325600000000     0.286300000000     0          
H283     H      0.000000000000     0.359500000000     0.292600000000     0          
C284     C      0.000000000000     0.292000000000     0.325500000000     0          
H285     H      0.000000000000     0.303600000000     0.358100000000     0          
C286     C      0.000000000000     0.241300000000     0.316100000000     0          
C287     C      0.000000000000     0.224000000000     0.267400000000     0          
H288     H      0.000000000000     0.190100000000     0.261100000000     0          
C289     C      0.000000000000     0.257600000000     0.228100000000     0          
H290     H      0.000000000000     0.246000000000     0.195600000000     0          
O291     O      0.500000000000     0.928820000000     0.131960000000     0          
O292     O      0.500000000000     0.428820000000     0.631960000000     0          
O293     O      0.000000000000     0.928820000000     0.368040000000     0          
H294     H      0.000000000000     0.810200000000     0.354700000000     0          
C295     C      0.000000000000     0.854300000000     0.293900000000     0          
H296     H      0.000000000000     0.887900000000     0.281300000000     0          
C297     C      0.000000000000     0.808300000000     0.262400000000     0          
C298     C      0.000000000000     0.825600000000     0.213700000000     0          
H299     H      0.000000000000     0.859500000000     0.207400000000     0          
C300     C      0.000000000000     0.792000000000     0.174500000000     0          
H301     H      0.000000000000     0.803600000000     0.141900000000     0          
C302     C      0.000000000000     0.741300000000     0.183900000000     0          
C303     C      0.000000000000     0.724000000000     0.232600000000     0          
H304     H      0.000000000000     0.690100000000     0.238900000000     0          
C305     C      0.000000000000     0.757600000000     0.271900000000     0          
H306     H      0.000000000000     0.746000000000     0.304400000000     0          
O307     O      0.000000000000     0.428820000000     0.868040000000     0          
H308     H      0.000000000000     0.310200000000     0.854700000000     0          
C309     C      0.000000000000     0.354300000000     0.793900000000     0          
H310     H      0.000000000000     0.387900000000     0.781300000000     0          
H311     H      0.000000000000     0.246000000000     0.804400000000     0          
O312     O      0.500000000000     0.928820000000     0.868040000000     0          
H313     H      0.500000000000     0.810200000000     0.854700000000     0          
C314     C      0.500000000000     0.854300000000     0.793900000000     0          
H315     H      0.500000000000     0.887900000000     0.781300000000     0          
O316     O      0.500000000000     0.428820000000     0.368040000000     0          
O317     O      0.000000000000     0.368040000000     0.928820000000     0          
O318     O      0.000000000000     0.868040000000     0.428820000000     0          
O319     O      0.500000000000     0.368040000000     0.428820000000     0          
H320     H      0.500000000000     0.354700000000     0.310200000000     0          
C321     C      0.500000000000     0.293900000000     0.354300000000     0          
H322     H      0.500000000000     0.281300000000     0.387900000000     0          
C323     C      0.500000000000     0.262400000000     0.308300000000     0          
C324     C      0.500000000000     0.213700000000     0.325600000000     0          
H325     H      0.500000000000     0.207400000000     0.359500000000     0          
C326     C      0.500000000000     0.174500000000     0.292000000000     0          
H327     H      0.500000000000     0.141900000000     0.303600000000     0          
C328     C      0.500000000000     0.183900000000     0.241300000000     0          
C329     C      0.500000000000     0.232600000000     0.224000000000     0          
H330     H      0.500000000000     0.238900000000     0.190100000000     0          
C331     C      0.500000000000     0.271900000000     0.257600000000     0          
H332     H      0.500000000000     0.304400000000     0.246000000000     0          
O333     O      0.500000000000     0.868040000000     0.928820000000     0          
O334     O      0.000000000000     0.631960000000     0.928820000000     0          
H335     H      0.000000000000     0.645300000000     0.810200000000     0          
C336     C      0.000000000000     0.706100000000     0.854300000000     0          
H337     H      0.000000000000     0.718700000000     0.887900000000     0          
C338     C      0.000000000000     0.737600000000     0.808300000000     0          
C339     C      0.000000000000     0.786300000000     0.825600000000     0          
H340     H      0.000000000000     0.792600000000     0.859500000000     0          
C341     C      0.000000000000     0.825500000000     0.792000000000     0          
H342     H      0.000000000000     0.858100000000     0.803600000000     0          
C343     C      0.000000000000     0.816100000000     0.741300000000     0          
C344     C      0.000000000000     0.767400000000     0.724000000000     0          
H345     H      0.000000000000     0.761100000000     0.690100000000     0          
C346     C      0.000000000000     0.728100000000     0.757600000000     0          
H347     H      0.000000000000     0.695600000000     0.746000000000     0          
O348     O      0.000000000000     0.131960000000     0.428820000000     0          
H349     H      0.000000000000     0.145300000000     0.310200000000     0          
C350     C      0.000000000000     0.206100000000     0.354300000000     0          
H351     H      0.000000000000     0.218700000000     0.387900000000     0          
O352     O      0.500000000000     0.631960000000     0.428820000000     0          
O353     O      0.500000000000     0.131960000000     0.928820000000     0          
O354     O      0.000000000000     0.631960000000     0.071180000000     0          
H355     H      0.000000000000     0.645300000000     0.189800000000     0          
C356     C      0.000000000000     0.706100000000     0.145700000000     0          
H357     H      0.000000000000     0.718700000000     0.112100000000     0          
O358     O      0.000000000000     0.131960000000     0.571180000000     0          
H359     H      0.000000000000     0.145300000000     0.689800000000     0          
C360     C      0.000000000000     0.206100000000     0.645700000000     0          
H361     H      0.000000000000     0.218700000000     0.612100000000     0          
C362     C      0.000000000000     0.237600000000     0.691700000000     0          
C363     C      0.000000000000     0.286300000000     0.674400000000     0          
H364     H      0.000000000000     0.292600000000     0.640500000000     0          
C365     C      0.000000000000     0.325500000000     0.708000000000     0          
H366     H      0.000000000000     0.358100000000     0.696400000000     0          
C367     C      0.000000000000     0.316100000000     0.758700000000     0          
C368     C      0.000000000000     0.267400000000     0.776000000000     0          
C369     C      0.000000000000     0.228100000000     0.742400000000     0          
H370     H      0.000000000000     0.195600000000     0.754000000000     0          
O371     O      0.500000000000     0.631960000000     0.571180000000     0          
H372     H      0.500000000000     0.645300000000     0.689800000000     0          
C373     C      0.500000000000     0.706100000000     0.645700000000     0          
H374     H      0.500000000000     0.718700000000     0.612100000000     0          
C375     C      0.500000000000     0.737600000000     0.691700000000     0          
C376     C      0.500000000000     0.786300000000     0.674400000000     0          
H377     H      0.500000000000     0.792600000000     0.640500000000     0          
C378     C      0.500000000000     0.825500000000     0.708000000000     0          
H379     H      0.500000000000     0.858100000000     0.696400000000     0          
C380     C      0.500000000000     0.816100000000     0.758700000000     0          
C381     C      0.500000000000     0.767400000000     0.776000000000     0          
H382     H      0.500000000000     0.761100000000     0.809900000000     0          
C383     C      0.500000000000     0.728100000000     0.742400000000     0          
H384     H      0.500000000000     0.695600000000     0.754000000000     0          
O385     O      0.500000000000     0.131960000000     0.071180000000     0          
O386     O      0.000000000000     0.368040000000     0.071180000000     0          
O387     O      0.000000000000     0.868040000000     0.571180000000     0          
O388     O      0.500000000000     0.368040000000     0.571180000000     0          
H389     H      0.500000000000     0.354700000000     0.689800000000     0          
C390     C      0.500000000000     0.293900000000     0.645700000000     0          
H391     H      0.500000000000     0.281300000000     0.612100000000     0          
C392     C      0.500000000000     0.232600000000     0.776000000000     0          
O393     O      0.500000000000     0.868040000000     0.071180000000     0          
H394     H      0.500000000000     0.854700000000     0.189800000000     0          
C395     C      0.500000000000     0.793900000000     0.145700000000     0          
H396     H      0.500000000000     0.781300000000     0.112100000000     0          
O397     O      0.368040000000     0.071180000000     0.000000000000     0          
O398     O      0.368040000000     0.571180000000     0.500000000000     0          
O399     O      0.868040000000     0.071180000000     0.500000000000     0          
O400     O      0.868040000000     0.571180000000     0.000000000000     0          
O401     O      0.631960000000     0.071180000000     0.000000000000     0          
O402     O      0.631960000000     0.571180000000     0.500000000000     0          
H403     H      0.645300000000     0.689800000000     0.500000000000     0          
C404     C      0.706100000000     0.645700000000     0.500000000000     0          
H405     H      0.718700000000     0.612100000000     0.500000000000     0          
O406     O      0.131960000000     0.071180000000     0.500000000000     0          
H407     H      0.145300000000     0.189800000000     0.500000000000     0          
C408     C      0.206100000000     0.145700000000     0.500000000000     0          
H409     H      0.218700000000     0.112100000000     0.500000000000     0          
O410     O      0.131960000000     0.571180000000     0.000000000000     0          
O411     O      0.631960000000     0.928820000000     0.000000000000     0          
H412     H      0.645300000000     0.810200000000     0.000000000000     0          
C413     C      0.706100000000     0.854300000000     0.000000000000     0          
H414     H      0.718700000000     0.887900000000     0.000000000000     0          
C415     C      0.737600000000     0.808300000000     0.000000000000     0          
C416     C      0.786300000000     0.825600000000     0.000000000000     0          
H417     H      0.792600000000     0.859500000000     0.000000000000     0          
C418     C      0.825500000000     0.792000000000     0.000000000000     0          
H419     H      0.858100000000     0.803600000000     0.000000000000     0          
C420     C      0.816100000000     0.741300000000     0.000000000000     0          
C421     C      0.767400000000     0.724000000000     0.000000000000     0          
H422     H      0.761100000000     0.690100000000     0.000000000000     0          
C423     C      0.728100000000     0.757600000000     0.000000000000     0          
H424     H      0.695600000000     0.746000000000     0.000000000000     0          
O425     O      0.631960000000     0.428820000000     0.500000000000     0          
H426     H      0.645300000000     0.310200000000     0.500000000000     0          
C427     C      0.706100000000     0.354300000000     0.500000000000     0          
H428     H      0.718700000000     0.387900000000     0.500000000000     0          
O429     O      0.131960000000     0.928820000000     0.500000000000     0          
H430     H      0.145300000000     0.810200000000     0.500000000000     0          
C431     C      0.206100000000     0.854300000000     0.500000000000     0          
H432     H      0.218700000000     0.887900000000     0.500000000000     0          
C433     C      0.237600000000     0.808300000000     0.500000000000     0          
C434     C      0.286300000000     0.825600000000     0.500000000000     0          
H435     H      0.292600000000     0.859500000000     0.500000000000     0          
C436     C      0.325500000000     0.792000000000     0.500000000000     0          
H437     H      0.358100000000     0.803600000000     0.500000000000     0          
C438     C      0.316100000000     0.741300000000     0.500000000000     0          
C439     C      0.267400000000     0.724000000000     0.500000000000     0          
H440     H      0.261100000000     0.690100000000     0.500000000000     0          
C441     C      0.228100000000     0.757600000000     0.500000000000     0          
H442     H      0.195600000000     0.746000000000     0.500000000000     0          
O443     O      0.131960000000     0.428820000000     0.000000000000     0          
H444     H      0.145300000000     0.310200000000     0.000000000000     0          
C445     C      0.206100000000     0.354300000000     0.000000000000     0          
H446     H      0.218700000000     0.387900000000     0.000000000000     0          
O447     O      0.368040000000     0.928820000000     0.000000000000     0          
H448     H      0.354700000000     0.810200000000     0.000000000000     0          
C449     C      0.293900000000     0.854300000000     0.000000000000     0          
H450     H      0.281300000000     0.887900000000     0.000000000000     0          
O451     O      0.368040000000     0.428820000000     0.500000000000     0          
O452     O      0.868040000000     0.928820000000     0.500000000000     0          
O453     O      0.868040000000     0.428820000000     0.000000000000     0          
H454     H      0.854700000000     0.310200000000     0.000000000000     0          
C455     C      0.793900000000     0.354300000000     0.000000000000     0          
H456     H      0.781300000000     0.387900000000     0.000000000000     0          
C457     C      0.762400000000     0.308300000000     0.000000000000     0          
C458     C      0.713700000000     0.325600000000     0.000000000000     0          
H459     H      0.707400000000     0.359500000000     0.000000000000     0          
C460     C      0.674500000000     0.292000000000     0.000000000000     0          
H461     H      0.641900000000     0.303600000000     0.000000000000     0          
C462     C      0.683900000000     0.241300000000     0.000000000000     0          
C463     C      0.732600000000     0.224000000000     0.000000000000     0          
H464     H      0.738900000000     0.190100000000     0.000000000000     0          
C465     C      0.771900000000     0.257600000000     0.000000000000     0          
H466     H      0.804400000000     0.246000000000     0.000000000000     0          
O467     O      0.071180000000     0.000000000000     0.631960000000     0          
O468     O      0.071180000000     0.500000000000     0.131960000000     0          
O469     O      0.571180000000     0.000000000000     0.131960000000     0          
O470     O      0.571180000000     0.500000000000     0.631960000000     0          
O471     O      0.071180000000     0.000000000000     0.368040000000     0          
H472     H      0.189800000000     0.000000000000     0.354700000000     0          
C473     C      0.145700000000     0.000000000000     0.293900000000     0          
H474     H      0.112100000000     0.000000000000     0.281300000000     0          
O475     O      0.071180000000     0.500000000000     0.868040000000     0          
H476     H      0.189800000000     0.500000000000     0.854700000000     0          
C477     C      0.145700000000     0.500000000000     0.793900000000     0          
H478     H      0.112100000000     0.500000000000     0.781300000000     0          
O479     O      0.571180000000     0.000000000000     0.868040000000     0          
O480     O      0.571180000000     0.500000000000     0.368040000000     0          
H481     H      0.689800000000     0.500000000000     0.354700000000     0          
C482     C      0.645700000000     0.500000000000     0.293900000000     0          
H483     H      0.612100000000     0.500000000000     0.281300000000     0          
C484     C      0.691700000000     0.500000000000     0.262400000000     0          
C485     C      0.674400000000     0.500000000000     0.213700000000     0          
H486     H      0.640500000000     0.500000000000     0.207400000000     0          
C487     C      0.708000000000     0.500000000000     0.174500000000     0          
H488     H      0.696400000000     0.500000000000     0.141900000000     0          
C489     C      0.758700000000     0.500000000000     0.183900000000     0          
C490     C      0.776000000000     0.500000000000     0.232600000000     0          
H491     H      0.809900000000     0.500000000000     0.238900000000     0          
C492     C      0.742400000000     0.500000000000     0.271900000000     0          
H493     H      0.754000000000     0.500000000000     0.304400000000     0          
O494     O      0.928820000000     0.000000000000     0.368040000000     0          
H495     H      0.810200000000     0.000000000000     0.354700000000     0          
C496     C      0.854300000000     0.000000000000     0.293900000000     0          
H497     H      0.887900000000     0.000000000000     0.281300000000     0          
O498     O      0.928820000000     0.500000000000     0.868040000000     0          
H499     H      0.810200000000     0.500000000000     0.854700000000     0          
C500     C      0.854300000000     0.500000000000     0.793900000000     0          
H501     H      0.887900000000     0.500000000000     0.781300000000     0          
O502     O      0.428820000000     0.000000000000     0.868040000000     0          
H503     H      0.310200000000     0.000000000000     0.854700000000     0          
C504     C      0.354300000000     0.000000000000     0.793900000000     0          
H505     H      0.387900000000     0.000000000000     0.781300000000     0          
O506     O      0.428820000000     0.500000000000     0.368040000000     0          
H507     H      0.310200000000     0.500000000000     0.354700000000     0          
C508     C      0.354300000000     0.500000000000     0.293900000000     0          
H509     H      0.387900000000     0.500000000000     0.281300000000     0          
C510     C      0.308300000000     0.500000000000     0.262400000000     0          
C511     C      0.325600000000     0.500000000000     0.213700000000     0          
H512     H      0.359500000000     0.500000000000     0.207400000000     0          
C513     C      0.292000000000     0.500000000000     0.174500000000     0          
H514     H      0.303600000000     0.500000000000     0.141900000000     0          
C515     C      0.241300000000     0.500000000000     0.183900000000     0          
C516     C      0.224000000000     0.500000000000     0.232600000000     0          
H517     H      0.190100000000     0.500000000000     0.238900000000     0          
C518     C      0.257600000000     0.500000000000     0.271900000000     0          
H519     H      0.246000000000     0.500000000000     0.304400000000     0          
O520     O      0.928820000000     0.000000000000     0.631960000000     0          
H521     H      0.810200000000     0.000000000000     0.645300000000     0          
C522     C      0.854300000000     0.000000000000     0.706100000000     0          
H523     H      0.887900000000     0.000000000000     0.718700000000     0          
C524     C      0.808300000000     0.000000000000     0.737600000000     0          
C525     C      0.825600000000     0.000000000000     0.786300000000     0          
H526     H      0.859500000000     0.000000000000     0.792600000000     0          
C527     C      0.792000000000     0.000000000000     0.825500000000     0          
H528     H      0.803600000000     0.000000000000     0.858100000000     0          
C529     C      0.741300000000     0.000000000000     0.816100000000     0          
C530     C      0.724000000000     0.000000000000     0.767400000000     0          
H531     H      0.690100000000     0.000000000000     0.761100000000     0          
C532     C      0.757600000000     0.000000000000     0.728100000000     0          
H533     H      0.746000000000     0.000000000000     0.695600000000     0          
O534     O      0.928820000000     0.500000000000     0.131960000000     0          
O535     O      0.428820000000     0.000000000000     0.131960000000     0          
O536     O      0.428820000000     0.500000000000     0.631960000000     0          
C537     C      0.383900000000     0.000000000000     0.116100000000     0          
C538     C      0.344700000000     0.000000000000     0.155300000000     0          
C539     C      0.383900000000     0.500000000000     0.616100000000     0          
C540     C      0.344700000000     0.500000000000     0.655300000000     0          
C541     C      0.616100000000     0.000000000000     0.116100000000     0          
C542     C      0.655300000000     0.000000000000     0.155300000000     0          
C543     C      0.616100000000     0.500000000000     0.616100000000     0          
C544     C      0.655300000000     0.500000000000     0.655300000000     0          
C545     C      0.116100000000     0.500000000000     0.116100000000     0          
C546     C      0.155300000000     0.500000000000     0.155300000000     0          
C547     C      0.616100000000     0.000000000000     0.883900000000     0          
C548     C      0.655300000000     0.000000000000     0.844700000000     0          
C549     C      0.616100000000     0.500000000000     0.383900000000     0          
C550     C      0.655300000000     0.500000000000     0.344700000000     0          
C551     C      0.116100000000     0.000000000000     0.383900000000     0          
C552     C      0.155300000000     0.000000000000     0.344700000000     0          
C553     C      0.383900000000     0.000000000000     0.883900000000     0          
C554     C      0.344700000000     0.000000000000     0.844700000000     0          
C555     C      0.383900000000     0.500000000000     0.383900000000     0          
C556     C      0.344700000000     0.500000000000     0.344700000000     0          
C557     C      0.116100000000     0.383900000000     0.000000000000     0          
C558     C      0.155300000000     0.344700000000     0.000000000000     0          
C559     C      0.116100000000     0.883900000000     0.500000000000     0          
C560     C      0.155300000000     0.844700000000     0.500000000000     0          
C561     C      0.116100000000     0.616100000000     0.000000000000     0          
C562     C      0.155300000000     0.655300000000     0.000000000000     0          
C563     C      0.116100000000     0.116100000000     0.500000000000     0          
C564     C      0.155300000000     0.155300000000     0.500000000000     0          
C565     C      0.883900000000     0.616100000000     0.000000000000     0          
C566     C      0.844700000000     0.655300000000     0.000000000000     0          
C567     C      0.883900000000     0.116100000000     0.500000000000     0          
C568     C      0.844700000000     0.155300000000     0.500000000000     0          
C569     C      0.383900000000     0.116100000000     0.000000000000     0          
C570     C      0.344700000000     0.155300000000     0.000000000000     0          
C571     C      0.883900000000     0.383900000000     0.000000000000     0          
C572     C      0.844700000000     0.344700000000     0.000000000000     0          
C573     C      0.883900000000     0.883900000000     0.500000000000     0          
C574     C      0.844700000000     0.844700000000     0.500000000000     0          
C575     C      0.383900000000     0.383900000000     0.500000000000     0          
C576     C      0.344700000000     0.344700000000     0.500000000000     0          
C577     C      0.000000000000     0.116100000000     0.383900000000     0          
C578     C      0.000000000000     0.155300000000     0.344700000000     0          
C579     C      0.500000000000     0.116100000000     0.883900000000     0          
C580     C      0.500000000000     0.155300000000     0.844700000000     0          
C581     C      0.000000000000     0.116100000000     0.616100000000     0          
C582     C      0.000000000000     0.155300000000     0.655300000000     0          
C583     C      0.500000000000     0.116100000000     0.116100000000     0          
C584     C      0.500000000000     0.155300000000     0.155300000000     0          
C585     C      0.000000000000     0.883900000000     0.616100000000     0          
C586     C      0.000000000000     0.844700000000     0.655300000000     0          
C587     C      0.000000000000     0.383900000000     0.116100000000     0          
C588     C      0.000000000000     0.344700000000     0.155300000000     0          
C589     C      0.500000000000     0.883900000000     0.116100000000     0          
C590     C      0.500000000000     0.844700000000     0.155300000000     0          
C591     C      0.000000000000     0.883900000000     0.383900000000     0          
C592     C      0.000000000000     0.844700000000     0.344700000000     0          
C593     C      0.500000000000     0.883900000000     0.883900000000     0          
C594     C      0.500000000000     0.844700000000     0.844700000000     0          
C595     C      0.500000000000     0.383900000000     0.383900000000     0          
C596     C      0.500000000000     0.344700000000     0.344700000000     0          
C597     C      0.000000000000     0.383900000000     0.883900000000     0          
C598     C      0.000000000000     0.344700000000     0.844700000000     0          
C599     C      0.000000000000     0.616100000000     0.883900000000     0          
C600     C      0.000000000000     0.655300000000     0.844700000000     0          
C601     C      0.500000000000     0.616100000000     0.383900000000     0          
C602     C      0.500000000000     0.655300000000     0.344700000000     0          
C603     C      0.000000000000     0.616100000000     0.116100000000     0          
C604     C      0.000000000000     0.655300000000     0.155300000000     0          
C605     C      0.500000000000     0.616100000000     0.616100000000     0          
C606     C      0.500000000000     0.655300000000     0.655300000000     0          
C607     C      0.500000000000     0.383900000000     0.616100000000     0          
C608     C      0.500000000000     0.344700000000     0.655300000000     0          
C609     C      0.383900000000     0.616100000000     0.500000000000     0          
C610     C      0.344700000000     0.655300000000     0.500000000000     0          
C611     C      0.616100000000     0.116100000000     0.000000000000     0          
C612     C      0.655300000000     0.155300000000     0.000000000000     0          
C613     C      0.616100000000     0.616100000000     0.500000000000     0          
C614     C      0.655300000000     0.655300000000     0.500000000000     0          
C615     C      0.616100000000     0.883900000000     0.000000000000     0          
C616     C      0.655300000000     0.844700000000     0.000000000000     0          
C617     C      0.616100000000     0.383900000000     0.500000000000     0          
C618     C      0.655300000000     0.344700000000     0.500000000000     0          
C619     C      0.383900000000     0.883900000000     0.000000000000     0          
C620     C      0.344700000000     0.844700000000     0.000000000000     0          
C621     C      0.116100000000     0.000000000000     0.616100000000     0          
C622     C      0.155300000000     0.000000000000     0.655300000000     0          
C623     C      0.116100000000     0.500000000000     0.883900000000     0          
C624     C      0.155300000000     0.500000000000     0.844700000000     0          
C625     C      0.883900000000     0.000000000000     0.383900000000     0          
C626     C      0.844700000000     0.000000000000     0.344700000000     0          
C627     C      0.883900000000     0.500000000000     0.883900000000     0          
C628     C      0.844700000000     0.500000000000     0.844700000000     0          
C629     C      0.883900000000     0.000000000000     0.616100000000     0          
C630     C      0.844700000000     0.000000000000     0.655300000000     0          
C631     C      0.883900000000     0.500000000000     0.116100000000     0          
C632     C      0.844700000000     0.500000000000     0.155300000000     0          


