data_ISEMOK

_audit_creation_method RASPA-1.0
_audit_creation_date 2020-11-2
_audit_author_name 'Rocio Bueno-Perez'

_cell_length_a    32.625
_cell_length_b    32.625
_cell_length_c    32.625
_cell_angle_alpha 90
_cell_angle_beta  90
_cell_angle_gamma 90
_cell_volume      34725.7

_symmetry_cell_setting          triclinic
_symmetry_space_group_name_Hall 'P 1'
_symmetry_space_group_name_H-M  'P 1'
_symmetry_Int_Tables_number     1

_symmetry_equiv_pos_as_xyz 'x,y,z'

loop_
_atom_site_label
_atom_site_type_symbol
_atom_site_fract_x
_atom_site_fract_y
_atom_site_fract_z
_atom_site_charge
H1       H      0.258900000000     0.208800000000     0.058200000000     0          
C2       C      0.254600000000     0.225700000000     0.034500000000     0          
C3       C      0.332200000000     0.616900000000     0.488800000000     0          
C4       C      0.301600000000     0.647500000000     0.488800000000     0          
H5       H      0.236900000000     0.651700000000     0.476000000000     0          
H6       H      0.274100000000     0.641200000000     0.480400000000     0          
H7       H      0.325800000000     0.590100000000     0.481500000000     0          
C8       C      0.832200000000     0.116900000000     0.488800000000     0          
C9       C      0.801600000000     0.147500000000     0.488800000000     0          
H10      H      0.736900000000     0.151700000000     0.476000000000     0          
H11      H      0.774100000000     0.141200000000     0.480400000000     0          
H12      H      0.825800000000     0.090100000000     0.481500000000     0          
C13      C      0.739700000000     0.801200000000     0.071500000000     0          
H14      H      0.758900000000     0.793000000000     0.092200000000     0          
H15      H      0.744100000000     0.829500000000     0.064700000000     0          
H16      H      0.712300000000     0.797700000000     0.081500000000     0          
C17      C      0.745400000000     0.774300000000     0.034500000000     0          
C18      C      0.667800000000     0.383100000000     0.488800000000     0          
C19      C      0.698400000000     0.352500000000     0.488800000000     0          
H20      H      0.763100000000     0.348300000000     0.476000000000     0          
H21      H      0.725900000000     0.358800000000     0.480400000000     0          
H22      H      0.674200000000     0.409900000000     0.481500000000     0          
H23      H      0.263100000000     0.848300000000     0.476000000000     0          
C24      C      0.667800000000     0.616900000000     0.511200000000     0          
C25      C      0.698400000000     0.647500000000     0.511200000000     0          
H26      H      0.725900000000     0.641200000000     0.519600000000     0          
H27      H      0.674200000000     0.590100000000     0.518500000000     0          
C28      C      0.167800000000     0.116900000000     0.511200000000     0          
C29      C      0.198400000000     0.147500000000     0.511200000000     0          
H30      H      0.263100000000     0.151700000000     0.524000000000     0          
H31      H      0.225900000000     0.141200000000     0.519600000000     0          
H32      H      0.174200000000     0.090100000000     0.518500000000     0          
C33      C      0.332200000000     0.383100000000     0.511200000000     0          
C34      C      0.301600000000     0.352500000000     0.511200000000     0          
H35      H      0.236900000000     0.348300000000     0.524000000000     0          
H36      H      0.274100000000     0.358800000000     0.519600000000     0          
H37      H      0.325800000000     0.409900000000     0.518500000000     0          
H38      H      0.758900000000     0.791200000000     0.441800000000     0          
C39      C      0.754600000000     0.774300000000     0.465500000000     0          
H40      H      0.976000000000     0.236900000000     0.151700000000     0          
H41      H      0.976000000000     0.736900000000     0.651700000000     0          
C42      C      0.571500000000     0.260300000000     0.698800000000     0          
H43      H      0.592200000000     0.241100000000     0.707000000000     0          
H44      H      0.564700000000     0.255900000000     0.670500000000     0          
H45      H      0.581500000000     0.287700000000     0.702300000000     0          
C46      C      0.534500000000     0.254600000000     0.725700000000     0          
C47      C      0.488800000000     0.832200000000     0.116900000000     0          
C48      C      0.488800000000     0.801600000000     0.147500000000     0          
H49      H      0.476000000000     0.736900000000     0.151700000000     0          
H50      H      0.480400000000     0.774100000000     0.141200000000     0          
H51      H      0.481500000000     0.825800000000     0.090100000000     0          
H52      H      0.976000000000     0.763100000000     0.848300000000     0          
H53      H      0.976000000000     0.263100000000     0.348300000000     0          
C54      C      0.488800000000     0.667800000000     0.383100000000     0          
C55      C      0.488800000000     0.698400000000     0.352500000000     0          
H56      H      0.476000000000     0.763100000000     0.348300000000     0          
H57      H      0.480400000000     0.725900000000     0.358800000000     0          
H58      H      0.481500000000     0.674200000000     0.409900000000     0          
C59      C      0.011200000000     0.667800000000     0.116900000000     0          
C60      C      0.011200000000     0.698400000000     0.147500000000     0          
H61      H      0.024000000000     0.763100000000     0.151700000000     0          
H62      H      0.019600000000     0.725900000000     0.141200000000     0          
H63      H      0.018500000000     0.674200000000     0.090100000000     0          
C64      C      0.011200000000     0.167800000000     0.616900000000     0          
C65      C      0.011200000000     0.198400000000     0.647500000000     0          
H66      H      0.019600000000     0.225900000000     0.641200000000     0          
H67      H      0.018500000000     0.174200000000     0.590100000000     0          
C68      C      0.511200000000     0.667800000000     0.616900000000     0          
C69      C      0.511200000000     0.698400000000     0.647500000000     0          
H70      H      0.519600000000     0.725900000000     0.641200000000     0          
H71      H      0.518500000000     0.674200000000     0.590100000000     0          
C72      C      0.011200000000     0.332200000000     0.883100000000     0          
C73      C      0.011200000000     0.301600000000     0.852500000000     0          
H74      H      0.019600000000     0.274100000000     0.858800000000     0          
H75      H      0.018500000000     0.325800000000     0.909900000000     0          
C76      C      0.011200000000     0.832200000000     0.383100000000     0          
C77      C      0.011200000000     0.801600000000     0.352500000000     0          
H78      H      0.024000000000     0.736900000000     0.348300000000     0          
H79      H      0.019600000000     0.774100000000     0.358800000000     0          
H80      H      0.018500000000     0.825800000000     0.409900000000     0          
H81      H      0.441800000000     0.258900000000     0.291200000000     0          
C82      C      0.465500000000     0.254600000000     0.274300000000     0          
C83      C      0.511200000000     0.832200000000     0.883100000000     0          
C84      C      0.511200000000     0.801600000000     0.852500000000     0          
H85      H      0.519600000000     0.774100000000     0.858800000000     0          
H86      H      0.518500000000     0.825800000000     0.909900000000     0          
C87      C      0.116900000000     0.988800000000     0.332200000000     0          
C88      C      0.147500000000     0.988800000000     0.301600000000     0          
H89      H      0.141200000000     0.980400000000     0.274100000000     0          
H90      H      0.090100000000     0.981500000000     0.325800000000     0          
H91      H      0.208800000000     0.058200000000     0.258900000000     0          
C92      C      0.225700000000     0.034500000000     0.254600000000     0          
C93      C      0.616900000000     0.988800000000     0.832200000000     0          
C94      C      0.647500000000     0.988800000000     0.801600000000     0          
H95      H      0.641200000000     0.980400000000     0.774100000000     0          
H96      H      0.590100000000     0.981500000000     0.825800000000     0          
C97      C      0.698800000000     0.071500000000     0.760300000000     0          
H98      H      0.707000000000     0.092200000000     0.741100000000     0          
H99      H      0.670500000000     0.064700000000     0.755900000000     0          
H100     H      0.702300000000     0.081500000000     0.787700000000     0          
C101     C      0.725700000000     0.034500000000     0.754600000000     0          
C102     C      0.698800000000     0.571500000000     0.260300000000     0          
H103     H      0.707000000000     0.592200000000     0.241100000000     0          
H104     H      0.670500000000     0.564700000000     0.255900000000     0          
H105     H      0.702300000000     0.581500000000     0.287700000000     0          
C106     C      0.725700000000     0.534500000000     0.254600000000     0          
C107     C      0.883100000000     0.988800000000     0.667800000000     0          
C108     C      0.852500000000     0.988800000000     0.698400000000     0          
H109     H      0.858800000000     0.980400000000     0.725900000000     0          
H110     H      0.909900000000     0.981500000000     0.674200000000     0          
C111     C      0.383100000000     0.988800000000     0.167800000000     0          
C112     C      0.352500000000     0.988800000000     0.198400000000     0          
H113     H      0.358800000000     0.980400000000     0.225900000000     0          
H114     H      0.409900000000     0.981500000000     0.174200000000     0          
C115     C      0.116900000000     0.511200000000     0.167800000000     0          
C116     C      0.147500000000     0.511200000000     0.198400000000     0          
H117     H      0.151700000000     0.524000000000     0.263100000000     0          
H118     H      0.141200000000     0.519600000000     0.225900000000     0          
H119     H      0.090100000000     0.518500000000     0.174200000000     0          
C120     C      0.616900000000     0.511200000000     0.667800000000     0          
C121     C      0.647500000000     0.511200000000     0.698400000000     0          
H122     H      0.641200000000     0.519600000000     0.725900000000     0          
H123     H      0.590100000000     0.518500000000     0.674200000000     0          
C124     C      0.883100000000     0.011200000000     0.332200000000     0          
C125     C      0.852500000000     0.011200000000     0.301600000000     0          
H126     H      0.858800000000     0.019600000000     0.274100000000     0          
H127     H      0.909900000000     0.018500000000     0.325800000000     0          
C128     C      0.883100000000     0.511200000000     0.832200000000     0          
C129     C      0.852500000000     0.511200000000     0.801600000000     0          
H130     H      0.858800000000     0.519600000000     0.774100000000     0          
H131     H      0.909900000000     0.518500000000     0.825800000000     0          
C132     C      0.801200000000     0.428500000000     0.760300000000     0          
H133     H      0.793000000000     0.407800000000     0.741100000000     0          
H134     H      0.829500000000     0.435300000000     0.755900000000     0          
H135     H      0.797700000000     0.418500000000     0.787700000000     0          
C136     C      0.774300000000     0.465500000000     0.754600000000     0          
C137     C      0.383100000000     0.011200000000     0.832200000000     0          
C138     C      0.352500000000     0.011200000000     0.801600000000     0          
H139     H      0.358800000000     0.019600000000     0.774100000000     0          
H140     H      0.409900000000     0.018500000000     0.825800000000     0          
C141     C      0.383100000000     0.511200000000     0.332200000000     0          
C142     C      0.352500000000     0.511200000000     0.301600000000     0          
H143     H      0.348300000000     0.524000000000     0.236900000000     0          
H144     H      0.358800000000     0.519600000000     0.274100000000     0          
H145     H      0.409900000000     0.518500000000     0.325800000000     0          
C146     C      0.616900000000     0.332200000000     0.511200000000     0          
C147     C      0.647500000000     0.301600000000     0.511200000000     0          
H148     H      0.641200000000     0.274100000000     0.519600000000     0          
H149     H      0.590100000000     0.325800000000     0.518500000000     0          
H150     H      0.708800000000     0.758900000000     0.941800000000     0          
C151     C      0.725700000000     0.754600000000     0.965500000000     0          
C152     C      0.883100000000     0.167800000000     0.511200000000     0          
C153     C      0.852500000000     0.198400000000     0.511200000000     0          
H154     H      0.858800000000     0.225900000000     0.519600000000     0          
H155     H      0.909900000000     0.174200000000     0.518500000000     0          
C156     C      0.383100000000     0.667800000000     0.511200000000     0          
C157     C      0.352500000000     0.698400000000     0.511200000000     0          
H158     H      0.358800000000     0.725900000000     0.519600000000     0          
H159     H      0.409900000000     0.674200000000     0.518500000000     0          
C160     C      0.301200000000     0.239700000000     0.928500000000     0          
H161     H      0.293000000000     0.258900000000     0.907800000000     0          
H162     H      0.329500000000     0.244100000000     0.935300000000     0          
H163     H      0.297700000000     0.212300000000     0.918500000000     0          
C164     C      0.274300000000     0.245400000000     0.965500000000     0          
H165     H      0.151700000000     0.763100000000     0.976000000000     0          
C166     C      0.116900000000     0.167800000000     0.488800000000     0          
C167     C      0.147500000000     0.198400000000     0.488800000000     0          
H168     H      0.141200000000     0.225900000000     0.480400000000     0          
H169     H      0.090100000000     0.174200000000     0.481500000000     0          
C170     C      0.616900000000     0.667800000000     0.488800000000     0          
C171     C      0.647500000000     0.698400000000     0.488800000000     0          
H172     H      0.641200000000     0.725900000000     0.480400000000     0          
H173     H      0.590100000000     0.674200000000     0.481500000000     0          
H174     H      0.651700000000     0.263100000000     0.976000000000     0          
H175     H      0.848300000000     0.236900000000     0.976000000000     0          
C176     C      0.801200000000     0.760300000000     0.571500000000     0          
H177     H      0.793000000000     0.741100000000     0.592200000000     0          
H178     H      0.829500000000     0.755900000000     0.564700000000     0          
H179     H      0.797700000000     0.787700000000     0.581500000000     0          
C180     C      0.774300000000     0.754600000000     0.534500000000     0          
C181     C      0.383100000000     0.332200000000     0.488800000000     0          
C182     C      0.352500000000     0.301600000000     0.488800000000     0          
H183     H      0.358800000000     0.274100000000     0.480400000000     0          
H184     H      0.409900000000     0.325800000000     0.481500000000     0          
H185     H      0.348300000000     0.736900000000     0.976000000000     0          
C186     C      0.332200000000     0.988800000000     0.883100000000     0          
C187     C      0.301600000000     0.988800000000     0.852500000000     0          
H188     H      0.236900000000     0.976000000000     0.848300000000     0          
H189     H      0.274100000000     0.980400000000     0.858800000000     0          
H190     H      0.325800000000     0.981500000000     0.909900000000     0          
C191     C      0.332200000000     0.488800000000     0.383100000000     0          
C192     C      0.301600000000     0.488800000000     0.352500000000     0          
H193     H      0.274100000000     0.480400000000     0.358800000000     0          
H194     H      0.325800000000     0.481500000000     0.409900000000     0          
C195     C      0.832200000000     0.988800000000     0.383100000000     0          
C196     C      0.801600000000     0.988800000000     0.352500000000     0          
H197     H      0.736900000000     0.976000000000     0.348300000000     0          
H198     H      0.774100000000     0.980400000000     0.358800000000     0          
H199     H      0.825800000000     0.981500000000     0.409900000000     0          
C200     C      0.832200000000     0.488800000000     0.883100000000     0          
C201     C      0.801600000000     0.488800000000     0.852500000000     0          
H202     H      0.774100000000     0.480400000000     0.858800000000     0          
H203     H      0.825800000000     0.481500000000     0.909900000000     0          
H204     H      0.758900000000     0.558200000000     0.791200000000     0          
C205     C      0.754600000000     0.534500000000     0.774300000000     0          
H206     H      0.763100000000     0.976000000000     0.151700000000     0          
C207     C      0.667800000000     0.488800000000     0.616900000000     0          
C208     C      0.698400000000     0.488800000000     0.647500000000     0          
H209     H      0.725900000000     0.480400000000     0.641200000000     0          
H210     H      0.674200000000     0.481500000000     0.590100000000     0          
H211     H      0.263100000000     0.976000000000     0.651700000000     0          
C212     C      0.167800000000     0.488800000000     0.116900000000     0          
C213     C      0.198400000000     0.488800000000     0.147500000000     0          
H214     H      0.225900000000     0.480400000000     0.141200000000     0          
H215     H      0.174200000000     0.481500000000     0.090100000000     0          
C216     C      0.667800000000     0.011200000000     0.883100000000     0          
C217     C      0.698400000000     0.011200000000     0.852500000000     0          
H218     H      0.725900000000     0.019600000000     0.858800000000     0          
H219     H      0.674200000000     0.018500000000     0.909900000000     0          
H220     H      0.741100000000     0.941800000000     0.791200000000     0          
C221     C      0.745400000000     0.965500000000     0.774300000000     0          
H222     H      0.741100000000     0.441800000000     0.291200000000     0          
C223     C      0.745400000000     0.465500000000     0.274300000000     0          
C224     C      0.167800000000     0.011200000000     0.383100000000     0          
C225     C      0.198400000000     0.011200000000     0.352500000000     0          
H226     H      0.225900000000     0.019600000000     0.358800000000     0          
H227     H      0.174200000000     0.018500000000     0.409900000000     0          
C228     C      0.239700000000     0.928500000000     0.301200000000     0          
H229     H      0.258900000000     0.907800000000     0.293000000000     0          
H230     H      0.244100000000     0.935300000000     0.329500000000     0          
H231     H      0.212300000000     0.918500000000     0.297700000000     0          
C232     C      0.245400000000     0.965500000000     0.274300000000     0          
H233     H      0.263100000000     0.524000000000     0.848300000000     0          
C234     C      0.332200000000     0.011200000000     0.116900000000     0          
C235     C      0.301600000000     0.011200000000     0.147500000000     0          
H236     H      0.274100000000     0.019600000000     0.141200000000     0          
H237     H      0.325800000000     0.018500000000     0.090100000000     0          
H238     H      0.236900000000     0.524000000000     0.651700000000     0          
C239     C      0.832200000000     0.011200000000     0.616900000000     0          
C240     C      0.801600000000     0.011200000000     0.647500000000     0          
H241     H      0.774100000000     0.019600000000     0.641200000000     0          
H242     H      0.825800000000     0.018500000000     0.590100000000     0          
C243     C      0.988800000000     0.116900000000     0.667800000000     0          
C244     C      0.988800000000     0.147500000000     0.698400000000     0          
H245     H      0.976000000000     0.151700000000     0.763100000000     0          
H246     H      0.980400000000     0.141200000000     0.725900000000     0          
H247     H      0.981500000000     0.090100000000     0.674200000000     0          
C248     C      0.988800000000     0.616900000000     0.167800000000     0          
C249     C      0.988800000000     0.647500000000     0.198400000000     0          
H250     H      0.980400000000     0.641200000000     0.225900000000     0          
H251     H      0.981500000000     0.590100000000     0.174200000000     0          
C252     C      0.488800000000     0.616900000000     0.667800000000     0          
C253     C      0.488800000000     0.647500000000     0.698400000000     0          
H254     H      0.476000000000     0.651700000000     0.763100000000     0          
H255     H      0.480400000000     0.641200000000     0.725900000000     0          
H256     H      0.481500000000     0.590100000000     0.674200000000     0          
C257     C      0.988800000000     0.883100000000     0.332200000000     0          
C258     C      0.988800000000     0.852500000000     0.301600000000     0          
H259     H      0.980400000000     0.858800000000     0.274100000000     0          
H260     H      0.981500000000     0.909900000000     0.325800000000     0          
C261     C      0.988800000000     0.383100000000     0.832200000000     0          
C262     C      0.988800000000     0.352500000000     0.801600000000     0          
H263     H      0.976000000000     0.348300000000     0.736900000000     0          
H264     H      0.980400000000     0.358800000000     0.774100000000     0          
H265     H      0.981500000000     0.409900000000     0.825800000000     0          
C266     C      0.488800000000     0.883100000000     0.832200000000     0          
C267     C      0.488800000000     0.852500000000     0.801600000000     0          
H268     H      0.476000000000     0.848300000000     0.736900000000     0          
H269     H      0.480400000000     0.858800000000     0.774100000000     0          
H270     H      0.481500000000     0.909900000000     0.825800000000     0          
C271     C      0.571500000000     0.301200000000     0.260300000000     0          
H272     H      0.592200000000     0.293000000000     0.241100000000     0          
H273     H      0.564700000000     0.329500000000     0.255900000000     0          
H274     H      0.581500000000     0.297700000000     0.287700000000     0          
C275     C      0.534500000000     0.274300000000     0.254600000000     0          
C276     C      0.511200000000     0.616900000000     0.332200000000     0          
C277     C      0.511200000000     0.647500000000     0.301600000000     0          
H278     H      0.519600000000     0.641200000000     0.274100000000     0          
H279     H      0.518500000000     0.590100000000     0.325800000000     0          
C280     C      0.511200000000     0.883100000000     0.167800000000     0          
C281     C      0.511200000000     0.852500000000     0.198400000000     0          
H282     H      0.519600000000     0.858800000000     0.225900000000     0          
H283     H      0.518500000000     0.909900000000     0.174200000000     0          
H284     H      0.441800000000     0.291200000000     0.741100000000     0          
C285     C      0.465500000000     0.274300000000     0.745400000000     0          
C286     C      0.667800000000     0.883100000000     0.011200000000     0          
C287     C      0.698400000000     0.852500000000     0.011200000000     0          
H288     H      0.725900000000     0.858800000000     0.019600000000     0          
H289     H      0.674200000000     0.909900000000     0.018500000000     0          
H290     H      0.763100000000     0.348300000000     0.524000000000     0          
C291     C      0.167800000000     0.883100000000     0.511200000000     0          
C292     C      0.198400000000     0.852500000000     0.511200000000     0          
H293     H      0.263100000000     0.848300000000     0.524000000000     0          
H294     H      0.225900000000     0.858800000000     0.519600000000     0          
H295     H      0.174200000000     0.909900000000     0.518500000000     0          
C296     C      0.167800000000     0.383100000000     0.011200000000     0          
C297     C      0.198400000000     0.352500000000     0.011200000000     0          
H298     H      0.225900000000     0.358800000000     0.019600000000     0          
H299     H      0.174200000000     0.409900000000     0.018500000000     0          
H300     H      0.241100000000     0.291200000000     0.941800000000     0          
C301     C      0.245400000000     0.274300000000     0.965500000000     0          
C302     C      0.332200000000     0.116900000000     0.011200000000     0          
C303     C      0.301600000000     0.147500000000     0.011200000000     0          
H304     H      0.274100000000     0.141200000000     0.019600000000     0          
H305     H      0.325800000000     0.090100000000     0.018500000000     0          
H306     H      0.236900000000     0.651700000000     0.524000000000     0          
H307     H      0.736900000000     0.151700000000     0.524000000000     0          
C308     C      0.832200000000     0.616900000000     0.011200000000     0          
C309     C      0.801600000000     0.647500000000     0.011200000000     0          
H310     H      0.774100000000     0.641200000000     0.019600000000     0          
H311     H      0.825800000000     0.590100000000     0.018500000000     0          
C312     C      0.760300000000     0.698800000000     0.928500000000     0          
H313     H      0.741100000000     0.707000000000     0.907800000000     0          
H314     H      0.755900000000     0.670500000000     0.935300000000     0          
H315     H      0.787700000000     0.702300000000     0.918500000000     0          
C316     C      0.754600000000     0.725700000000     0.965500000000     0          
C317     C      0.332200000000     0.883100000000     0.988800000000     0          
C318     C      0.301600000000     0.852500000000     0.988800000000     0          
H319     H      0.274100000000     0.858800000000     0.980400000000     0          
H320     H      0.325800000000     0.909900000000     0.981500000000     0          
H321     H      0.236900000000     0.348300000000     0.476000000000     0          
C322     C      0.832200000000     0.883100000000     0.488800000000     0          
C323     C      0.801600000000     0.852500000000     0.488800000000     0          
H324     H      0.774100000000     0.858800000000     0.480400000000     0          
H325     H      0.825800000000     0.909900000000     0.481500000000     0          
C326     C      0.832200000000     0.383100000000     0.988800000000     0          
C327     C      0.801600000000     0.352500000000     0.988800000000     0          
H328     H      0.774100000000     0.358800000000     0.980400000000     0          
H329     H      0.825800000000     0.409900000000     0.981500000000     0          
C330     C      0.667800000000     0.116900000000     0.988800000000     0          
C331     C      0.698400000000     0.147500000000     0.988800000000     0          
H332     H      0.725900000000     0.141200000000     0.980400000000     0          
H333     H      0.674200000000     0.090100000000     0.981500000000     0          
H334     H      0.741100000000     0.708800000000     0.558200000000     0          
C335     C      0.745400000000     0.725700000000     0.534500000000     0          
H336     H      0.263100000000     0.151700000000     0.476000000000     0          
C337     C      0.167800000000     0.616900000000     0.988800000000     0          
C338     C      0.198400000000     0.647500000000     0.988800000000     0          
H339     H      0.225900000000     0.641200000000     0.980400000000     0          
H340     H      0.174200000000     0.590100000000     0.981500000000     0          
C341     C      0.011200000000     0.667800000000     0.883100000000     0          
C342     C      0.011200000000     0.698400000000     0.852500000000     0          
H343     H      0.024000000000     0.763100000000     0.848300000000     0          
H344     H      0.019600000000     0.725900000000     0.858800000000     0          
H345     H      0.018500000000     0.674200000000     0.909900000000     0          
C346     C      0.011200000000     0.167800000000     0.383100000000     0          
C347     C      0.011200000000     0.198400000000     0.352500000000     0          
H348     H      0.024000000000     0.263100000000     0.348300000000     0          
H349     H      0.019600000000     0.225900000000     0.358800000000     0          
H350     H      0.018500000000     0.174200000000     0.409900000000     0          
H351     H      0.524000000000     0.763100000000     0.348300000000     0          
C352     C      0.511200000000     0.167800000000     0.883100000000     0          
C353     C      0.511200000000     0.198400000000     0.852500000000     0          
H354     H      0.519600000000     0.225900000000     0.858800000000     0          
H355     H      0.518500000000     0.174200000000     0.909900000000     0          
C356     C      0.428500000000     0.239700000000     0.801200000000     0          
H357     H      0.407800000000     0.258900000000     0.793000000000     0          
H358     H      0.435300000000     0.244100000000     0.829500000000     0          
H359     H      0.418500000000     0.212300000000     0.797700000000     0          
C360     C      0.465500000000     0.245400000000     0.774300000000     0          
C361     C      0.011200000000     0.332200000000     0.116900000000     0          
C362     C      0.011200000000     0.301600000000     0.147500000000     0          
H363     H      0.024000000000     0.236900000000     0.151700000000     0          
H364     H      0.019600000000     0.274100000000     0.141200000000     0          
H365     H      0.018500000000     0.325800000000     0.090100000000     0          
C366     C      0.011200000000     0.832200000000     0.616900000000     0          
C367     C      0.011200000000     0.801600000000     0.647500000000     0          
H368     H      0.024000000000     0.736900000000     0.651700000000     0          
H369     H      0.019600000000     0.774100000000     0.641200000000     0          
H370     H      0.018500000000     0.825800000000     0.590100000000     0          
C371     C      0.511200000000     0.332200000000     0.616900000000     0          
C372     C      0.511200000000     0.301600000000     0.647500000000     0          
H373     H      0.519600000000     0.274100000000     0.641200000000     0          
H374     H      0.518500000000     0.325800000000     0.590100000000     0          
H375     H      0.524000000000     0.736900000000     0.151700000000     0          
H376     H      0.976000000000     0.736900000000     0.348300000000     0          
C377     C      0.488800000000     0.332200000000     0.383100000000     0          
C378     C      0.488800000000     0.301600000000     0.352500000000     0          
H379     H      0.480400000000     0.274100000000     0.358800000000     0          
H380     H      0.481500000000     0.325800000000     0.409900000000     0          
H381     H      0.976000000000     0.763100000000     0.151700000000     0          
C382     C      0.488800000000     0.167800000000     0.116900000000     0          
C383     C      0.488800000000     0.198400000000     0.147500000000     0          
H384     H      0.480400000000     0.225900000000     0.141200000000     0          
H385     H      0.481500000000     0.174200000000     0.090100000000     0          
H386     H      0.558200000000     0.241100000000     0.208800000000     0          
C387     C      0.534500000000     0.245400000000     0.225700000000     0          
C388     C      0.801200000000     0.928500000000     0.739700000000     0          
H389     H      0.793000000000     0.907800000000     0.758900000000     0          
H390     H      0.829500000000     0.935300000000     0.744100000000     0          
H391     H      0.797700000000     0.918500000000     0.712300000000     0          
C392     C      0.774300000000     0.965500000000     0.745400000000     0          
C393     C      0.883100000000     0.511200000000     0.167800000000     0          
C394     C      0.852500000000     0.511200000000     0.198400000000     0          
H395     H      0.858800000000     0.519600000000     0.225900000000     0          
H396     H      0.909900000000     0.518500000000     0.174200000000     0          
C397     C      0.801200000000     0.428500000000     0.239700000000     0          
H398     H      0.793000000000     0.407800000000     0.258900000000     0          
H399     H      0.829500000000     0.435300000000     0.244100000000     0          
H400     H      0.797700000000     0.418500000000     0.212300000000     0          
C401     C      0.774300000000     0.465500000000     0.245400000000     0          
H402     H      0.291200000000     0.941800000000     0.241100000000     0          
C403     C      0.274300000000     0.965500000000     0.245400000000     0          
C404     C      0.383100000000     0.511200000000     0.667800000000     0          
C405     C      0.352500000000     0.511200000000     0.698400000000     0          
H406     H      0.358800000000     0.519600000000     0.725900000000     0          
H407     H      0.409900000000     0.518500000000     0.674200000000     0          
C408     C      0.116900000000     0.511200000000     0.832200000000     0          
C409     C      0.147500000000     0.511200000000     0.801600000000     0          
H410     H      0.141200000000     0.519600000000     0.774100000000     0          
H411     H      0.090100000000     0.518500000000     0.825800000000     0          
C412     C      0.616900000000     0.511200000000     0.332200000000     0          
C413     C      0.647500000000     0.511200000000     0.301600000000     0          
H414     H      0.641200000000     0.519600000000     0.274100000000     0          
H415     H      0.590100000000     0.518500000000     0.325800000000     0          
H416     H      0.348300000000     0.476000000000     0.236900000000     0          
C417     C      0.116900000000     0.988800000000     0.667800000000     0          
C418     C      0.147500000000     0.988800000000     0.698400000000     0          
H419     H      0.141200000000     0.980400000000     0.725900000000     0          
H420     H      0.090100000000     0.981500000000     0.674200000000     0          
H421     H      0.151700000000     0.476000000000     0.263100000000     0          
C422     C      0.616900000000     0.988800000000     0.167800000000     0          
C423     C      0.647500000000     0.988800000000     0.198400000000     0          
H424     H      0.641200000000     0.980400000000     0.225900000000     0          
H425     H      0.590100000000     0.981500000000     0.174200000000     0          
C426     C      0.698800000000     0.571500000000     0.739700000000     0          
H427     H      0.707000000000     0.592200000000     0.758900000000     0          
H428     H      0.670500000000     0.564700000000     0.744100000000     0          
H429     H      0.702300000000     0.581500000000     0.712300000000     0          
C430     C      0.725700000000     0.534500000000     0.745400000000     0          
C431     C      0.883100000000     0.667800000000     0.988800000000     0          
C432     C      0.852500000000     0.698400000000     0.988800000000     0          
H433     H      0.858800000000     0.725900000000     0.980400000000     0          
H434     H      0.909900000000     0.674200000000     0.981500000000     0          
H435     H      0.791200000000     0.741100000000     0.058200000000     0          
C436     C      0.774300000000     0.745400000000     0.034500000000     0          
C437     C      0.383100000000     0.167800000000     0.988800000000     0          
C438     C      0.352500000000     0.198400000000     0.988800000000     0          
H439     H      0.358800000000     0.225900000000     0.980400000000     0          
H440     H      0.409900000000     0.174200000000     0.981500000000     0          
C441     C      0.116900000000     0.332200000000     0.988800000000     0          
C442     C      0.147500000000     0.301600000000     0.988800000000     0          
H443     H      0.141200000000     0.274100000000     0.980400000000     0          
H444     H      0.090100000000     0.325800000000     0.981500000000     0          
C445     C      0.198800000000     0.260300000000     0.071500000000     0          
H446     H      0.207000000000     0.241100000000     0.092200000000     0          
H447     H      0.170500000000     0.255900000000     0.064700000000     0          
H448     H      0.202300000000     0.287700000000     0.081500000000     0          
C449     C      0.225700000000     0.254600000000     0.034500000000     0          
C450     C      0.116900000000     0.832200000000     0.488800000000     0          
C451     C      0.147500000000     0.801600000000     0.488800000000     0          
H452     H      0.141200000000     0.774100000000     0.480400000000     0          
H453     H      0.090100000000     0.825800000000     0.481500000000     0          
C454     C      0.616900000000     0.832200000000     0.988800000000     0          
C455     C      0.647500000000     0.801600000000     0.988800000000     0          
H456     H      0.641200000000     0.774100000000     0.980400000000     0          
H457     H      0.590100000000     0.825800000000     0.981500000000     0          
C458     C      0.883100000000     0.332200000000     0.011200000000     0          
C459     C      0.852500000000     0.301600000000     0.011200000000     0          
H460     H      0.848300000000     0.236900000000     0.024000000000     0          
H461     H      0.858800000000     0.274100000000     0.019600000000     0          
H462     H      0.909900000000     0.325800000000     0.018500000000     0          
C463     C      0.883100000000     0.832200000000     0.511200000000     0          
C464     C      0.852500000000     0.801600000000     0.511200000000     0          
H465     H      0.858800000000     0.774100000000     0.519600000000     0          
H466     H      0.909900000000     0.825800000000     0.518500000000     0          
C467     C      0.383100000000     0.832200000000     0.011200000000     0          
C468     C      0.352500000000     0.801600000000     0.011200000000     0          
H469     H      0.348300000000     0.736900000000     0.024000000000     0          
H470     H      0.358800000000     0.774100000000     0.019600000000     0          
H471     H      0.409900000000     0.825800000000     0.018500000000     0          
C472     C      0.116900000000     0.667800000000     0.011200000000     0          
C473     C      0.147500000000     0.698400000000     0.011200000000     0          
H474     H      0.151700000000     0.763100000000     0.024000000000     0          
H475     H      0.141200000000     0.725900000000     0.019600000000     0          
H476     H      0.090100000000     0.674200000000     0.018500000000     0          
C477     C      0.698800000000     0.739700000000     0.428500000000     0          
H478     H      0.707000000000     0.758900000000     0.407800000000     0          
H479     H      0.670500000000     0.744100000000     0.435300000000     0          
H480     H      0.702300000000     0.712300000000     0.418500000000     0          
C481     C      0.725700000000     0.745400000000     0.465500000000     0          
C482     C      0.616900000000     0.167800000000     0.011200000000     0          
C483     C      0.647500000000     0.198400000000     0.011200000000     0          
H484     H      0.651700000000     0.263100000000     0.024000000000     0          
H485     H      0.641200000000     0.225900000000     0.019600000000     0          
H486     H      0.590100000000     0.174200000000     0.018500000000     0          
C487     C      0.667800000000     0.011200000000     0.116900000000     0          
C488     C      0.698400000000     0.011200000000     0.147500000000     0          
H489     H      0.763100000000     0.024000000000     0.151700000000     0          
H490     H      0.725900000000     0.019600000000     0.141200000000     0          
H491     H      0.674200000000     0.018500000000     0.090100000000     0          
H492     H      0.741100000000     0.441800000000     0.708800000000     0          
C493     C      0.745400000000     0.465500000000     0.725700000000     0          
C494     C      0.167800000000     0.011200000000     0.616900000000     0          
C495     C      0.198400000000     0.011200000000     0.647500000000     0          
H496     H      0.263100000000     0.024000000000     0.651700000000     0          
H497     H      0.225900000000     0.019600000000     0.641200000000     0          
H498     H      0.174200000000     0.018500000000     0.590100000000     0          
H499     H      0.236900000000     0.024000000000     0.848300000000     0          
H500     H      0.736900000000     0.024000000000     0.348300000000     0          
C501     C      0.260300000000     0.071500000000     0.198800000000     0          
H502     H      0.241100000000     0.092200000000     0.207000000000     0          
H503     H      0.255900000000     0.064700000000     0.170500000000     0          
H504     H      0.287700000000     0.081500000000     0.202300000000     0          
C505     C      0.254600000000     0.034500000000     0.225700000000     0          
C506     C      0.332200000000     0.488800000000     0.616900000000     0          
C507     C      0.301600000000     0.488800000000     0.647500000000     0          
H508     H      0.236900000000     0.476000000000     0.651700000000     0          
H509     H      0.274100000000     0.480400000000     0.641200000000     0          
H510     H      0.325800000000     0.481500000000     0.590100000000     0          
H511     H      0.758900000000     0.058200000000     0.708800000000     0          
C512     C      0.754600000000     0.034500000000     0.725700000000     0          
C513     C      0.832200000000     0.488800000000     0.116900000000     0          
C514     C      0.801600000000     0.488800000000     0.147500000000     0          
H515     H      0.774100000000     0.480400000000     0.141200000000     0          
H516     H      0.825800000000     0.481500000000     0.090100000000     0          
H517     H      0.758900000000     0.558200000000     0.208800000000     0          
C518     C      0.754600000000     0.534500000000     0.225700000000     0          
C519     C      0.667800000000     0.488800000000     0.383100000000     0          
C520     C      0.698400000000     0.488800000000     0.352500000000     0          
H521     H      0.725900000000     0.480400000000     0.358800000000     0          
H522     H      0.674200000000     0.481500000000     0.409900000000     0          
C523     C      0.167800000000     0.488800000000     0.883100000000     0          
C524     C      0.198400000000     0.488800000000     0.852500000000     0          
H525     H      0.263100000000     0.476000000000     0.848300000000     0          
H526     H      0.225900000000     0.480400000000     0.858800000000     0          
H527     H      0.174200000000     0.481500000000     0.909900000000     0          
H528     H      0.024000000000     0.348300000000     0.736900000000     0          
H529     H      0.524000000000     0.848300000000     0.736900000000     0          
C530     C      0.511200000000     0.383100000000     0.332200000000     0          
C531     C      0.511200000000     0.352500000000     0.301600000000     0          
H532     H      0.519600000000     0.358800000000     0.274100000000     0          
H533     H      0.518500000000     0.409900000000     0.325800000000     0          
H534     H      0.024000000000     0.151700000000     0.763100000000     0          
C535     C      0.511200000000     0.116900000000     0.167800000000     0          
C536     C      0.511200000000     0.147500000000     0.198400000000     0          
H537     H      0.519600000000     0.141200000000     0.225900000000     0          
H538     H      0.518500000000     0.090100000000     0.174200000000     0          
C539     C      0.428500000000     0.198800000000     0.239700000000     0          
H540     H      0.407800000000     0.207000000000     0.258900000000     0          
H541     H      0.435300000000     0.170500000000     0.244100000000     0          
H542     H      0.418500000000     0.202300000000     0.212300000000     0          
C543     C      0.465500000000     0.225700000000     0.245400000000     0          
H544     H      0.524000000000     0.651700000000     0.763100000000     0          
C545     C      0.988800000000     0.883100000000     0.667800000000     0          
C546     C      0.988800000000     0.852500000000     0.698400000000     0          
H547     H      0.980400000000     0.858800000000     0.725900000000     0          
H548     H      0.981500000000     0.909900000000     0.674200000000     0          
C549     C      0.988800000000     0.383100000000     0.167800000000     0          
C550     C      0.988800000000     0.352500000000     0.198400000000     0          
H551     H      0.980400000000     0.358800000000     0.225900000000     0          
H552     H      0.981500000000     0.409900000000     0.174200000000     0          
C553     C      0.488800000000     0.383100000000     0.667800000000     0          
C554     C      0.488800000000     0.352500000000     0.698400000000     0          
H555     H      0.480400000000     0.358800000000     0.725900000000     0          
H556     H      0.481500000000     0.409900000000     0.674200000000     0          
C557     C      0.988800000000     0.116900000000     0.332200000000     0          
C558     C      0.988800000000     0.147500000000     0.301600000000     0          
H559     H      0.980400000000     0.141200000000     0.274100000000     0          
H560     H      0.981500000000     0.090100000000     0.325800000000     0          
C561     C      0.988800000000     0.616900000000     0.832200000000     0          
C562     C      0.988800000000     0.647500000000     0.801600000000     0          
H563     H      0.980400000000     0.641200000000     0.774100000000     0          
H564     H      0.981500000000     0.590100000000     0.825800000000     0          
C565     C      0.488800000000     0.116900000000     0.832200000000     0          
C566     C      0.488800000000     0.147500000000     0.801600000000     0          
H567     H      0.480400000000     0.141200000000     0.774100000000     0          
H568     H      0.481500000000     0.090100000000     0.825800000000     0          
H569     H      0.558200000000     0.208800000000     0.758900000000     0          
C570     C      0.534500000000     0.225700000000     0.754600000000     0          
Zr571    Zr     0.424320000000     0.000000000000     0.000000000000     0          
Zr572    Zr     0.424320000000     0.500000000000     0.500000000000     0          
Zr573    Zr     0.924320000000     0.000000000000     0.500000000000     0          
Zr574    Zr     0.924320000000     0.500000000000     0.000000000000     0          
Zr575    Zr     0.575680000000     0.000000000000     0.000000000000     0          
Zr576    Zr     0.575680000000     0.500000000000     0.500000000000     0          
Zr577    Zr     0.075680000000     0.000000000000     0.500000000000     0          
Zr578    Zr     0.075680000000     0.500000000000     0.000000000000     0          
Zr579    Zr     0.000000000000     0.424320000000     0.000000000000     0          
Zr580    Zr     0.000000000000     0.924320000000     0.500000000000     0          
Zr581    Zr     0.500000000000     0.424320000000     0.500000000000     0          
Zr582    Zr     0.500000000000     0.924320000000     0.000000000000     0          
Zr583    Zr     0.000000000000     0.575680000000     0.000000000000     0          
Zr584    Zr     0.000000000000     0.075680000000     0.500000000000     0          
Zr585    Zr     0.500000000000     0.575680000000     0.500000000000     0          
Zr586    Zr     0.500000000000     0.075680000000     0.000000000000     0          
Zr587    Zr     0.000000000000     0.000000000000     0.424320000000     0          
Zr588    Zr     0.000000000000     0.500000000000     0.924320000000     0          
Zr589    Zr     0.500000000000     0.000000000000     0.924320000000     0          
Zr590    Zr     0.500000000000     0.500000000000     0.424320000000     0          
Zr591    Zr     0.000000000000     0.000000000000     0.575680000000     0          
Zr592    Zr     0.000000000000     0.500000000000     0.075680000000     0          
Zr593    Zr     0.500000000000     0.000000000000     0.075680000000     0          
Zr594    Zr     0.500000000000     0.500000000000     0.575680000000     0          
O595     O      0.463400000000     0.036600000000     0.036600000000     0          
O596     O      0.463400000000     0.536600000000     0.536600000000     0          
O597     O      0.536600000000     0.963400000000     0.036600000000     0          
O598     O      0.536600000000     0.463400000000     0.536600000000     0          
O599     O      0.036600000000     0.463400000000     0.036600000000     0          
O600     O      0.536600000000     0.036600000000     0.963400000000     0          
O601     O      0.536600000000     0.536600000000     0.463400000000     0          
O602     O      0.036600000000     0.036600000000     0.463400000000     0          
O603     O      0.463400000000     0.963400000000     0.963400000000     0          
O604     O      0.463400000000     0.463400000000     0.463400000000     0          
O605     O      0.036600000000     0.536600000000     0.963400000000     0          
O606     O      0.963400000000     0.536600000000     0.036600000000     0          
O607     O      0.963400000000     0.463400000000     0.963400000000     0          
O608     O      0.963400000000     0.036600000000     0.536600000000     0          
O609     O      0.036600000000     0.963400000000     0.536600000000     0          
O610     O      0.963400000000     0.963400000000     0.463400000000     0          
O611     O      0.036600000000     0.463400000000     0.963400000000     0          
O612     O      0.963400000000     0.536600000000     0.963400000000     0          
O613     O      0.963400000000     0.036600000000     0.463400000000     0          
O614     O      0.463400000000     0.036600000000     0.963400000000     0          
O615     O      0.036600000000     0.536600000000     0.036600000000     0          
O616     O      0.963400000000     0.463400000000     0.036600000000     0          
O617     O      0.463400000000     0.463400000000     0.536600000000     0          
O618     O      0.463400000000     0.536600000000     0.463400000000     0          
O619     O      0.536600000000     0.036600000000     0.036600000000     0          
O620     O      0.536600000000     0.536600000000     0.536600000000     0          
O621     O      0.536600000000     0.963400000000     0.963400000000     0          
O622     O      0.536600000000     0.463400000000     0.463400000000     0          
O623     O      0.036600000000     0.963400000000     0.463400000000     0          
O624     O      0.463400000000     0.963400000000     0.036600000000     0          
O625     O      0.036600000000     0.036600000000     0.536600000000     0          
O626     O      0.963400000000     0.963400000000     0.536600000000     0          
O627     O      0.390000000000     0.057700000000     0.000000000000     0          
O628     O      0.390000000000     0.557700000000     0.500000000000     0          
C629     C      0.238200000000     0.709600000000     0.500000000000     0          
C630     C      0.226200000000     0.664900000000     0.500000000000     0          
H631     H      0.196800000000     0.662900000000     0.500000000000     0          
O632     O      0.890000000000     0.057700000000     0.500000000000     0          
C633     C      0.738200000000     0.209600000000     0.500000000000     0          
C634     C      0.726200000000     0.164900000000     0.500000000000     0          
H635     H      0.696800000000     0.162900000000     0.500000000000     0          
O636     O      0.890000000000     0.557700000000     0.000000000000     0          
O637     O      0.610000000000     0.942300000000     0.000000000000     0          
O638     O      0.610000000000     0.442300000000     0.500000000000     0          
C639     C      0.761800000000     0.290400000000     0.500000000000     0          
C640     C      0.773800000000     0.335100000000     0.500000000000     0          
H641     H      0.803200000000     0.337100000000     0.500000000000     0          
O642     O      0.110000000000     0.942300000000     0.500000000000     0          
C643     C      0.261800000000     0.790400000000     0.500000000000     0          
C644     C      0.273800000000     0.835100000000     0.500000000000     0          
H645     H      0.303200000000     0.837100000000     0.500000000000     0          
O646     O      0.110000000000     0.442300000000     0.000000000000     0          
O647     O      0.610000000000     0.057700000000     0.000000000000     0          
C648     C      0.761800000000     0.209600000000     0.000000000000     0          
H649     H      0.769500000000     0.181200000000     0.000000000000     0          
O650     O      0.610000000000     0.557700000000     0.500000000000     0          
O651     O      0.110000000000     0.057700000000     0.500000000000     0          
C652     C      0.261800000000     0.209600000000     0.500000000000     0          
C653     C      0.273800000000     0.164900000000     0.500000000000     0          
H654     H      0.303200000000     0.162900000000     0.500000000000     0          
O655     O      0.110000000000     0.557700000000     0.000000000000     0          
C656     C      0.261800000000     0.709600000000     0.000000000000     0          
H657     H      0.269500000000     0.681200000000     0.000000000000     0          
O658     O      0.390000000000     0.942300000000     0.000000000000     0          
C659     C      0.238200000000     0.790400000000     0.000000000000     0          
H660     H      0.230500000000     0.818800000000     0.000000000000     0          
O661     O      0.390000000000     0.442300000000     0.500000000000     0          
C662     C      0.238200000000     0.290400000000     0.500000000000     0          
C663     C      0.226200000000     0.335100000000     0.500000000000     0          
H664     H      0.196800000000     0.337100000000     0.500000000000     0          
O665     O      0.890000000000     0.942300000000     0.500000000000     0          
O666     O      0.890000000000     0.442300000000     0.000000000000     0          
C667     C      0.738200000000     0.290400000000     0.000000000000     0          
H668     H      0.730500000000     0.318800000000     0.000000000000     0          
O669     O      0.000000000000     0.390000000000     0.057700000000     0          
C670     C      0.000000000000     0.238200000000     0.209600000000     0          
C671     C      0.000000000000     0.226200000000     0.164900000000     0          
H672     H      0.000000000000     0.196800000000     0.162900000000     0          
O673     O      0.000000000000     0.890000000000     0.557700000000     0          
C674     C      0.000000000000     0.738200000000     0.709600000000     0          
C675     C      0.000000000000     0.726200000000     0.664900000000     0          
H676     H      0.000000000000     0.696800000000     0.662900000000     0          
O677     O      0.500000000000     0.390000000000     0.557700000000     0          
O678     O      0.500000000000     0.890000000000     0.057700000000     0          
C679     C      0.500000000000     0.738200000000     0.209600000000     0          
C680     C      0.500000000000     0.726200000000     0.164900000000     0          
H681     H      0.500000000000     0.696800000000     0.162900000000     0          
O682     O      0.000000000000     0.610000000000     0.942300000000     0          
C683     C      0.000000000000     0.761800000000     0.790400000000     0          
C684     C      0.000000000000     0.773800000000     0.835100000000     0          
H685     H      0.000000000000     0.803200000000     0.837100000000     0          
O686     O      0.000000000000     0.110000000000     0.442300000000     0          
C687     C      0.000000000000     0.261800000000     0.290400000000     0          
C688     C      0.000000000000     0.273800000000     0.335100000000     0          
H689     H      0.000000000000     0.303200000000     0.337100000000     0          
O690     O      0.500000000000     0.610000000000     0.442300000000     0          
C691     C      0.500000000000     0.761800000000     0.290400000000     0          
C692     C      0.500000000000     0.773800000000     0.335100000000     0          
H693     H      0.500000000000     0.803200000000     0.337100000000     0          
O694     O      0.500000000000     0.110000000000     0.942300000000     0          
O695     O      0.000000000000     0.610000000000     0.057700000000     0          
C696     C      0.000000000000     0.761800000000     0.209600000000     0          
C697     C      0.000000000000     0.773800000000     0.164900000000     0          
H698     H      0.000000000000     0.803200000000     0.162900000000     0          
O699     O      0.000000000000     0.110000000000     0.557700000000     0          
C700     C      0.000000000000     0.261800000000     0.709600000000     0          
H701     H      0.000000000000     0.269500000000     0.681200000000     0          
O702     O      0.500000000000     0.610000000000     0.557700000000     0          
C703     C      0.500000000000     0.761800000000     0.709600000000     0          
H704     H      0.500000000000     0.769500000000     0.681200000000     0          
O705     O      0.500000000000     0.110000000000     0.057700000000     0          
O706     O      0.000000000000     0.390000000000     0.942300000000     0          
C707     C      0.000000000000     0.238200000000     0.790400000000     0          
H708     H      0.000000000000     0.230500000000     0.818800000000     0          
O709     O      0.000000000000     0.890000000000     0.442300000000     0          
C710     C      0.000000000000     0.738200000000     0.290400000000     0          
C711     C      0.000000000000     0.726200000000     0.335100000000     0          
H712     H      0.000000000000     0.696800000000     0.337100000000     0          
O713     O      0.500000000000     0.390000000000     0.442300000000     0          
O714     O      0.500000000000     0.890000000000     0.942300000000     0          
C715     C      0.500000000000     0.738200000000     0.790400000000     0          
H716     H      0.500000000000     0.730500000000     0.818800000000     0          
O717     O      0.057700000000     0.000000000000     0.390000000000     0          
O718     O      0.057700000000     0.500000000000     0.890000000000     0          
C719     C      0.209600000000     0.500000000000     0.738200000000     0          
H720     H      0.181200000000     0.500000000000     0.730500000000     0          
O721     O      0.557700000000     0.000000000000     0.890000000000     0          
O722     O      0.557700000000     0.500000000000     0.390000000000     0          
O723     O      0.942300000000     0.000000000000     0.610000000000     0          
O724     O      0.942300000000     0.500000000000     0.110000000000     0          
O725     O      0.442300000000     0.000000000000     0.110000000000     0          
O726     O      0.442300000000     0.500000000000     0.610000000000     0          
C727     C      0.290400000000     0.500000000000     0.761800000000     0          
H728     H      0.318800000000     0.500000000000     0.769500000000     0          
O729     O      0.057700000000     0.000000000000     0.610000000000     0          
C730     C      0.209600000000     0.000000000000     0.761800000000     0          
H731     H      0.181200000000     0.000000000000     0.769500000000     0          
O732     O      0.057700000000     0.500000000000     0.110000000000     0          
C733     C      0.209600000000     0.500000000000     0.261800000000     0          
C734     C      0.164900000000     0.500000000000     0.273800000000     0          
H735     H      0.162900000000     0.500000000000     0.303200000000     0          
O736     O      0.557700000000     0.000000000000     0.110000000000     0          
C737     C      0.709600000000     0.000000000000     0.261800000000     0          
H738     H      0.681200000000     0.000000000000     0.269500000000     0          
O739     O      0.557700000000     0.500000000000     0.610000000000     0          
O740     O      0.942300000000     0.000000000000     0.390000000000     0          
C741     C      0.790400000000     0.000000000000     0.238200000000     0          
H742     H      0.818800000000     0.000000000000     0.230500000000     0          
O743     O      0.942300000000     0.500000000000     0.890000000000     0          
O744     O      0.442300000000     0.000000000000     0.890000000000     0          
C745     C      0.290400000000     0.000000000000     0.738200000000     0          
H746     H      0.318800000000     0.000000000000     0.730500000000     0          
O747     O      0.442300000000     0.500000000000     0.390000000000     0          
C748     C      0.290400000000     0.500000000000     0.238200000000     0          
C749     C      0.335100000000     0.500000000000     0.226200000000     0          
H750     H      0.337100000000     0.500000000000     0.196800000000     0          
O751     O      0.057700000000     0.390000000000     0.000000000000     0          
O752     O      0.057700000000     0.890000000000     0.500000000000     0          
C753     C      0.209600000000     0.738200000000     0.500000000000     0          
H754     H      0.181200000000     0.730500000000     0.500000000000     0          
O755     O      0.557700000000     0.390000000000     0.500000000000     0          
C756     C      0.709600000000     0.238200000000     0.500000000000     0          
H757     H      0.681200000000     0.230500000000     0.500000000000     0          
O758     O      0.557700000000     0.890000000000     0.000000000000     0          
O759     O      0.942300000000     0.610000000000     0.000000000000     0          
O760     O      0.942300000000     0.110000000000     0.500000000000     0          
C761     C      0.790400000000     0.261800000000     0.500000000000     0          
H762     H      0.818800000000     0.269500000000     0.500000000000     0          
O763     O      0.442300000000     0.610000000000     0.500000000000     0          
C764     C      0.290400000000     0.761800000000     0.500000000000     0          
H765     H      0.318800000000     0.769500000000     0.500000000000     0          
O766     O      0.442300000000     0.110000000000     0.000000000000     0          
O767     O      0.057700000000     0.610000000000     0.000000000000     0          
C768     C      0.209600000000     0.761800000000     0.000000000000     0          
C769     C      0.164900000000     0.773800000000     0.000000000000     0          
H770     H      0.162900000000     0.803200000000     0.000000000000     0          
O771     O      0.057700000000     0.110000000000     0.500000000000     0          
C772     C      0.209600000000     0.261800000000     0.500000000000     0          
H773     H      0.181200000000     0.269500000000     0.500000000000     0          
O774     O      0.557700000000     0.610000000000     0.500000000000     0          
O775     O      0.557700000000     0.110000000000     0.000000000000     0          
C776     C      0.709600000000     0.261800000000     0.000000000000     0          
C777     C      0.664900000000     0.273800000000     0.000000000000     0          
H778     H      0.662900000000     0.303200000000     0.000000000000     0          
O779     O      0.942300000000     0.390000000000     0.000000000000     0          
C780     C      0.790400000000     0.238200000000     0.000000000000     0          
C781     C      0.835100000000     0.226200000000     0.000000000000     0          
H782     H      0.837100000000     0.196800000000     0.000000000000     0          
O783     O      0.942300000000     0.890000000000     0.500000000000     0          
O784     O      0.442300000000     0.390000000000     0.500000000000     0          
C785     C      0.290400000000     0.238200000000     0.500000000000     0          
H786     H      0.318800000000     0.230500000000     0.500000000000     0          
O787     O      0.442300000000     0.890000000000     0.000000000000     0          
C788     C      0.290400000000     0.738200000000     0.000000000000     0          
C789     C      0.335100000000     0.726200000000     0.000000000000     0          
H790     H      0.337100000000     0.696800000000     0.000000000000     0          
O791     O      0.390000000000     0.000000000000     0.942300000000     0          
C792     C      0.238200000000     0.000000000000     0.790400000000     0          
C793     C      0.226200000000     0.000000000000     0.835100000000     0          
H794     H      0.196800000000     0.000000000000     0.837100000000     0          
O795     O      0.390000000000     0.500000000000     0.442300000000     0          
C796     C      0.238200000000     0.500000000000     0.290400000000     0          
H797     H      0.230500000000     0.500000000000     0.318800000000     0          
O798     O      0.890000000000     0.000000000000     0.442300000000     0          
C799     C      0.738200000000     0.000000000000     0.290400000000     0          
C800     C      0.726200000000     0.000000000000     0.335100000000     0          
H801     H      0.696800000000     0.000000000000     0.337100000000     0          
O802     O      0.890000000000     0.500000000000     0.942300000000     0          
O803     O      0.610000000000     0.000000000000     0.057700000000     0          
C804     C      0.761800000000     0.000000000000     0.209600000000     0          
C805     C      0.773800000000     0.000000000000     0.164900000000     0          
H806     H      0.803200000000     0.000000000000     0.162900000000     0          
O807     O      0.610000000000     0.500000000000     0.557700000000     0          
O808     O      0.110000000000     0.000000000000     0.557700000000     0          
C809     C      0.261800000000     0.000000000000     0.709600000000     0          
C810     C      0.273800000000     0.000000000000     0.664900000000     0          
H811     H      0.303200000000     0.000000000000     0.662900000000     0          
O812     O      0.110000000000     0.500000000000     0.057700000000     0          
C813     C      0.261800000000     0.500000000000     0.209600000000     0          
H814     H      0.269500000000     0.500000000000     0.181200000000     0          
O815     O      0.610000000000     0.000000000000     0.942300000000     0          
O816     O      0.610000000000     0.500000000000     0.442300000000     0          
O817     O      0.110000000000     0.000000000000     0.442300000000     0          
O818     O      0.110000000000     0.500000000000     0.942300000000     0          
C819     C      0.261800000000     0.500000000000     0.790400000000     0          
C820     C      0.273800000000     0.500000000000     0.835100000000     0          
H821     H      0.303200000000     0.500000000000     0.837100000000     0          
O822     O      0.390000000000     0.000000000000     0.057700000000     0          
O823     O      0.390000000000     0.500000000000     0.557700000000     0          
C824     C      0.238200000000     0.500000000000     0.709600000000     0          
C825     C      0.226200000000     0.500000000000     0.664900000000     0          
H826     H      0.196800000000     0.500000000000     0.662900000000     0          
O827     O      0.890000000000     0.000000000000     0.557700000000     0          
O828     O      0.890000000000     0.500000000000     0.057700000000     0          
O829     O      0.000000000000     0.057700000000     0.610000000000     0          
C830     C      0.000000000000     0.209600000000     0.761800000000     0          
C831     C      0.000000000000     0.164900000000     0.773800000000     0          
H832     H      0.000000000000     0.162900000000     0.803200000000     0          
O833     O      0.000000000000     0.557700000000     0.110000000000     0          
C834     C      0.000000000000     0.709600000000     0.261800000000     0          
H835     H      0.000000000000     0.681200000000     0.269500000000     0          
O836     O      0.500000000000     0.057700000000     0.110000000000     0          
O837     O      0.500000000000     0.557700000000     0.610000000000     0          
C838     C      0.500000000000     0.709600000000     0.761800000000     0          
C839     C      0.500000000000     0.664900000000     0.773800000000     0          
H840     H      0.500000000000     0.662900000000     0.803200000000     0          
O841     O      0.000000000000     0.942300000000     0.390000000000     0          
C842     C      0.000000000000     0.790400000000     0.238200000000     0          
H843     H      0.000000000000     0.818800000000     0.230500000000     0          
O844     O      0.000000000000     0.442300000000     0.890000000000     0          
C845     C      0.000000000000     0.290400000000     0.738200000000     0          
C846     C      0.000000000000     0.335100000000     0.726200000000     0          
H847     H      0.000000000000     0.337100000000     0.696800000000     0          
O848     O      0.500000000000     0.942300000000     0.890000000000     0          
C849     C      0.500000000000     0.790400000000     0.738200000000     0          
C850     C      0.500000000000     0.835100000000     0.726200000000     0          
H851     H      0.500000000000     0.837100000000     0.696800000000     0          
O852     O      0.500000000000     0.442300000000     0.390000000000     0          
O853     O      0.000000000000     0.057700000000     0.390000000000     0          
C854     C      0.000000000000     0.209600000000     0.238200000000     0          
H855     H      0.000000000000     0.181200000000     0.230500000000     0          
O856     O      0.000000000000     0.557700000000     0.890000000000     0          
C857     C      0.000000000000     0.709600000000     0.738200000000     0          
H858     H      0.000000000000     0.681200000000     0.730500000000     0          
O859     O      0.500000000000     0.057700000000     0.890000000000     0          
O860     O      0.500000000000     0.557700000000     0.390000000000     0          
C861     C      0.500000000000     0.709600000000     0.238200000000     0          
H862     H      0.500000000000     0.681200000000     0.230500000000     0          
O863     O      0.000000000000     0.942300000000     0.610000000000     0          
C864     C      0.000000000000     0.790400000000     0.761800000000     0          
H865     H      0.000000000000     0.818800000000     0.769500000000     0          
O866     O      0.000000000000     0.442300000000     0.110000000000     0          
C867     C      0.000000000000     0.290400000000     0.261800000000     0          
H868     H      0.000000000000     0.318800000000     0.269500000000     0          
O869     O      0.500000000000     0.942300000000     0.110000000000     0          
C870     C      0.500000000000     0.790400000000     0.261800000000     0          
H871     H      0.500000000000     0.818800000000     0.269500000000     0          
O872     O      0.500000000000     0.442300000000     0.610000000000     0          
C873     C      0.405100000000     0.094900000000     0.000000000000     0          
C874     C      0.372650000000     0.127350000000     0.000000000000     0          
C875     C      0.311940000000     0.188060000000     0.000000000000     0          
C876     C      0.279200000000     0.220800000000     0.000000000000     0          
C877     C      0.405100000000     0.594900000000     0.500000000000     0          
C878     C      0.372650000000     0.627350000000     0.500000000000     0          
C879     C      0.311940000000     0.688060000000     0.500000000000     0          
C880     C      0.279200000000     0.720800000000     0.500000000000     0          
C881     C      0.594900000000     0.905100000000     0.000000000000     0          
C882     C      0.627350000000     0.872650000000     0.000000000000     0          
C883     C      0.688060000000     0.811940000000     0.000000000000     0          
C884     C      0.720800000000     0.779200000000     0.000000000000     0          
C885     C      0.594900000000     0.405100000000     0.500000000000     0          
C886     C      0.627350000000     0.372650000000     0.500000000000     0          
C887     C      0.688060000000     0.311940000000     0.500000000000     0          
C888     C      0.720800000000     0.279200000000     0.500000000000     0          
C889     C      0.094900000000     0.405100000000     0.000000000000     0          
C890     C      0.127350000000     0.372650000000     0.000000000000     0          
C891     C      0.188060000000     0.311940000000     0.000000000000     0          
C892     C      0.220800000000     0.279200000000     0.000000000000     0          
C893     C      0.594900000000     0.094900000000     0.000000000000     0          
C894     C      0.627350000000     0.127350000000     0.000000000000     0          
C895     C      0.688060000000     0.188060000000     0.000000000000     0          
C896     C      0.720800000000     0.220800000000     0.000000000000     0          
C897     C      0.594900000000     0.594900000000     0.500000000000     0          
C898     C      0.627350000000     0.627350000000     0.500000000000     0          
C899     C      0.688060000000     0.688060000000     0.500000000000     0          
C900     C      0.720800000000     0.720800000000     0.500000000000     0          
C901     C      0.094900000000     0.094900000000     0.500000000000     0          
C902     C      0.127350000000     0.127350000000     0.500000000000     0          
C903     C      0.188060000000     0.188060000000     0.500000000000     0          
C904     C      0.220800000000     0.220800000000     0.500000000000     0          
C905     C      0.405100000000     0.905100000000     0.000000000000     0          
C906     C      0.372650000000     0.872650000000     0.000000000000     0          
C907     C      0.311940000000     0.811940000000     0.000000000000     0          
C908     C      0.279200000000     0.779200000000     0.000000000000     0          
C909     C      0.405100000000     0.405100000000     0.500000000000     0          
C910     C      0.372650000000     0.372650000000     0.500000000000     0          
C911     C      0.311940000000     0.311940000000     0.500000000000     0          
C912     C      0.279200000000     0.279200000000     0.500000000000     0          
C913     C      0.000000000000     0.405100000000     0.094900000000     0          
C914     C      0.000000000000     0.372650000000     0.127350000000     0          
C915     C      0.000000000000     0.311940000000     0.188060000000     0          
C916     C      0.000000000000     0.279200000000     0.220800000000     0          
C917     C      0.500000000000     0.405100000000     0.594900000000     0          
C918     C      0.500000000000     0.372650000000     0.627350000000     0          
C919     C      0.500000000000     0.311940000000     0.688060000000     0          
C920     C      0.500000000000     0.279200000000     0.720800000000     0          
C921     C      0.000000000000     0.594900000000     0.905100000000     0          
C922     C      0.000000000000     0.627350000000     0.872650000000     0          
C923     C      0.000000000000     0.688060000000     0.811940000000     0          
C924     C      0.000000000000     0.720800000000     0.779200000000     0          
C925     C      0.000000000000     0.094900000000     0.405100000000     0          
C926     C      0.000000000000     0.127350000000     0.372650000000     0          
C927     C      0.000000000000     0.188060000000     0.311940000000     0          
C928     C      0.000000000000     0.220800000000     0.279200000000     0          
C929     C      0.500000000000     0.594900000000     0.405100000000     0          
C930     C      0.500000000000     0.627350000000     0.372650000000     0          
C931     C      0.500000000000     0.688060000000     0.311940000000     0          
C932     C      0.500000000000     0.720800000000     0.279200000000     0          
C933     C      0.000000000000     0.594900000000     0.094900000000     0          
C934     C      0.000000000000     0.627350000000     0.127350000000     0          
C935     C      0.000000000000     0.688060000000     0.188060000000     0          
C936     C      0.000000000000     0.720800000000     0.220800000000     0          
C937     C      0.500000000000     0.594900000000     0.594900000000     0          
C938     C      0.500000000000     0.627350000000     0.627350000000     0          
C939     C      0.500000000000     0.688060000000     0.688060000000     0          
C940     C      0.500000000000     0.720800000000     0.720800000000     0          
C941     C      0.500000000000     0.094900000000     0.094900000000     0          
C942     C      0.500000000000     0.127350000000     0.127350000000     0          
C943     C      0.500000000000     0.188060000000     0.188060000000     0          
C944     C      0.500000000000     0.220800000000     0.220800000000     0          
C945     C      0.000000000000     0.405100000000     0.905100000000     0          
C946     C      0.000000000000     0.372650000000     0.872650000000     0          
C947     C      0.000000000000     0.311940000000     0.811940000000     0          
C948     C      0.000000000000     0.279200000000     0.779200000000     0          
C949     C      0.500000000000     0.405100000000     0.405100000000     0          
C950     C      0.500000000000     0.372650000000     0.372650000000     0          
C951     C      0.500000000000     0.311940000000     0.311940000000     0          
C952     C      0.500000000000     0.279200000000     0.279200000000     0          
C953     C      0.094900000000     0.000000000000     0.405100000000     0          
C954     C      0.127350000000     0.000000000000     0.372650000000     0          
C955     C      0.188060000000     0.000000000000     0.311940000000     0          
C956     C      0.220800000000     0.000000000000     0.279200000000     0          
C957     C      0.094900000000     0.500000000000     0.905100000000     0          
C958     C      0.127350000000     0.500000000000     0.872650000000     0          
C959     C      0.188060000000     0.500000000000     0.811940000000     0          
C960     C      0.220800000000     0.500000000000     0.779200000000     0          
C961     C      0.905100000000     0.000000000000     0.594900000000     0          
C962     C      0.872650000000     0.000000000000     0.627350000000     0          
C963     C      0.811940000000     0.000000000000     0.688060000000     0          
C964     C      0.779200000000     0.000000000000     0.720800000000     0          
C965     C      0.905100000000     0.500000000000     0.094900000000     0          
C966     C      0.872650000000     0.500000000000     0.127350000000     0          
C967     C      0.811940000000     0.500000000000     0.188060000000     0          
C968     C      0.779200000000     0.500000000000     0.220800000000     0          
C969     C      0.405100000000     0.000000000000     0.094900000000     0          
C970     C      0.372650000000     0.000000000000     0.127350000000     0          
C971     C      0.311940000000     0.000000000000     0.188060000000     0          
C972     C      0.279200000000     0.000000000000     0.220800000000     0          
C973     C      0.094900000000     0.000000000000     0.594900000000     0          
C974     C      0.127350000000     0.000000000000     0.627350000000     0          
C975     C      0.188060000000     0.000000000000     0.688060000000     0          
C976     C      0.220800000000     0.000000000000     0.720800000000     0          
C977     C      0.094900000000     0.500000000000     0.094900000000     0          
C978     C      0.127350000000     0.500000000000     0.127350000000     0          
C979     C      0.188060000000     0.500000000000     0.188060000000     0          
C980     C      0.220800000000     0.500000000000     0.220800000000     0          
C981     C      0.905100000000     0.000000000000     0.405100000000     0          
C982     C      0.872650000000     0.000000000000     0.372650000000     0          
C983     C      0.811940000000     0.000000000000     0.311940000000     0          
C984     C      0.779200000000     0.000000000000     0.279200000000     0          
C985     C      0.905100000000     0.500000000000     0.905100000000     0          
C986     C      0.872650000000     0.500000000000     0.872650000000     0          
C987     C      0.811940000000     0.500000000000     0.811940000000     0          
C988     C      0.779200000000     0.500000000000     0.779200000000     0          
C989     C      0.405100000000     0.500000000000     0.405100000000     0          
C990     C      0.372650000000     0.500000000000     0.372650000000     0          
C991     C      0.311940000000     0.500000000000     0.311940000000     0          
C992     C      0.279200000000     0.500000000000     0.279200000000     0          
C993     C      0.094900000000     0.905100000000     0.500000000000     0          
C994     C      0.127350000000     0.872650000000     0.500000000000     0          
C995     C      0.188060000000     0.811940000000     0.500000000000     0          
C996     C      0.220800000000     0.779200000000     0.500000000000     0          
C997     C      0.905100000000     0.594900000000     0.000000000000     0          
C998     C      0.872650000000     0.627350000000     0.000000000000     0          
C999     C      0.811940000000     0.688060000000     0.000000000000     0          
C1000    C      0.779200000000     0.720800000000     0.000000000000     0          
C1001    C      0.905100000000     0.094900000000     0.500000000000     0          
C1002    C      0.872650000000     0.127350000000     0.500000000000     0          
C1003    C      0.811940000000     0.188060000000     0.500000000000     0          
C1004    C      0.779200000000     0.220800000000     0.500000000000     0          
C1005    C      0.094900000000     0.594900000000     0.000000000000     0          
C1006    C      0.127350000000     0.627350000000     0.000000000000     0          
C1007    C      0.188060000000     0.688060000000     0.000000000000     0          
C1008    C      0.220800000000     0.720800000000     0.000000000000     0          
C1009    C      0.905100000000     0.405100000000     0.000000000000     0          
C1010    C      0.872650000000     0.372650000000     0.000000000000     0          
C1011    C      0.811940000000     0.311940000000     0.000000000000     0          
C1012    C      0.779200000000     0.279200000000     0.000000000000     0          
C1013    C      0.905100000000     0.905100000000     0.500000000000     0          
C1014    C      0.872650000000     0.872650000000     0.500000000000     0          
C1015    C      0.811940000000     0.811940000000     0.500000000000     0          
C1016    C      0.779200000000     0.779200000000     0.500000000000     0          
C1017    C      0.405100000000     0.000000000000     0.905100000000     0          
C1018    C      0.372650000000     0.000000000000     0.872650000000     0          
C1019    C      0.311940000000     0.000000000000     0.811940000000     0          
C1020    C      0.279200000000     0.000000000000     0.779200000000     0          
C1021    C      0.594900000000     0.000000000000     0.094900000000     0          
C1022    C      0.627350000000     0.000000000000     0.127350000000     0          
C1023    C      0.688060000000     0.000000000000     0.188060000000     0          
C1024    C      0.720800000000     0.000000000000     0.220800000000     0          
C1025    C      0.594900000000     0.500000000000     0.594900000000     0          
C1026    C      0.627350000000     0.500000000000     0.627350000000     0          
C1027    C      0.688060000000     0.500000000000     0.688060000000     0          
C1028    C      0.720800000000     0.500000000000     0.720800000000     0          
C1029    C      0.594900000000     0.000000000000     0.905100000000     0          
C1030    C      0.627350000000     0.000000000000     0.872650000000     0          
C1031    C      0.688060000000     0.000000000000     0.811940000000     0          
C1032    C      0.720800000000     0.000000000000     0.779200000000     0          
C1033    C      0.594900000000     0.500000000000     0.405100000000     0          
C1034    C      0.627350000000     0.500000000000     0.372650000000     0          
C1035    C      0.688060000000     0.500000000000     0.311940000000     0          
C1036    C      0.720800000000     0.500000000000     0.279200000000     0          
C1037    C      0.405100000000     0.500000000000     0.594900000000     0          
C1038    C      0.372650000000     0.500000000000     0.627350000000     0          
C1039    C      0.311940000000     0.500000000000     0.688060000000     0          
C1040    C      0.279200000000     0.500000000000     0.720800000000     0          
C1041    C      0.000000000000     0.094900000000     0.594900000000     0          
C1042    C      0.000000000000     0.127350000000     0.627350000000     0          
C1043    C      0.000000000000     0.188060000000     0.688060000000     0          
C1044    C      0.000000000000     0.220800000000     0.720800000000     0          
C1045    C      0.000000000000     0.905100000000     0.405100000000     0          
C1046    C      0.000000000000     0.872650000000     0.372650000000     0          
C1047    C      0.000000000000     0.811940000000     0.311940000000     0          
C1048    C      0.000000000000     0.779200000000     0.279200000000     0          
C1049    C      0.500000000000     0.905100000000     0.905100000000     0          
C1050    C      0.500000000000     0.872650000000     0.872650000000     0          
C1051    C      0.500000000000     0.811940000000     0.811940000000     0          
C1052    C      0.500000000000     0.779200000000     0.779200000000     0          
C1053    C      0.500000000000     0.094900000000     0.905100000000     0          
C1054    C      0.500000000000     0.127350000000     0.872650000000     0          
C1055    C      0.500000000000     0.188060000000     0.811940000000     0          
C1056    C      0.500000000000     0.220800000000     0.779200000000     0          
C1057    C      0.000000000000     0.905100000000     0.594900000000     0          
C1058    C      0.000000000000     0.872650000000     0.627350000000     0          
C1059    C      0.000000000000     0.811940000000     0.688060000000     0          
C1060    C      0.000000000000     0.779200000000     0.720800000000     0          
C1061    C      0.500000000000     0.905100000000     0.094900000000     0          
C1062    C      0.500000000000     0.872650000000     0.127350000000     0          
C1063    C      0.500000000000     0.811940000000     0.188060000000     0          
C1064    C      0.500000000000     0.779200000000     0.220800000000     0          


