data_ISENAX

_audit_creation_method RASPA-1.0
_audit_creation_date 2020-11-2
_audit_author_name 'Rocio Bueno-Perez'

_cell_length_a    26.739
_cell_length_b    26.739
_cell_length_c    26.739
_cell_angle_alpha 90
_cell_angle_beta  90
_cell_angle_gamma 90
_cell_volume      19117.7

_symmetry_cell_setting          triclinic
_symmetry_space_group_name_Hall 'P 1'
_symmetry_space_group_name_H-M  'P 1'
_symmetry_Int_Tables_number     1

_symmetry_equiv_pos_as_xyz 'x,y,z'

loop_
_atom_site_label
_atom_site_type_symbol
_atom_site_fract_x
_atom_site_fract_y
_atom_site_fract_z
_atom_site_charge
C1       C      0.295600000000     0.018400000000     0.855500000000     0          
H2       H      0.287400000000     0.030600000000     0.888300000000     0          
C3       C      0.259000000000     0.018000000000     0.817400000000     0          
H4       H      0.226500000000     0.030200000000     0.824500000000     0          
C5       C      0.795600000000     0.518400000000     0.855500000000     0          
H6       H      0.787400000000     0.530600000000     0.888300000000     0          
C7       C      0.759000000000     0.518000000000     0.817400000000     0          
C8       C      0.707800000000     0.537600000000     0.830400000000     0          
H9       H      0.686500000000     0.535400000000     0.801500000000     0          
H10      H      0.694000000000     0.517800000000     0.857000000000     0          
H11      H      0.710100000000     0.571800000000     0.840900000000     0          
C12      C      0.704400000000     0.481600000000     0.355500000000     0          
H13      H      0.712600000000     0.469400000000     0.388300000000     0          
C14      C      0.741000000000     0.482000000000     0.317400000000     0          
H15      H      0.773500000000     0.469800000000     0.324500000000     0          
C16      C      0.204400000000     0.481600000000     0.855500000000     0          
H17      H      0.212600000000     0.469400000000     0.888300000000     0          
C18      C      0.241000000000     0.482000000000     0.817400000000     0          
H19      H      0.273500000000     0.469800000000     0.824500000000     0          
C20      C      0.704400000000     0.518400000000     0.644500000000     0          
H21      H      0.712600000000     0.530600000000     0.611700000000     0          
C22      C      0.741000000000     0.518000000000     0.682600000000     0          
H23      H      0.773500000000     0.530200000000     0.675500000000     0          
C24      C      0.204400000000     0.018400000000     0.644500000000     0          
H25      H      0.212600000000     0.030600000000     0.611700000000     0          
C26      C      0.241000000000     0.018000000000     0.682600000000     0          
H27      H      0.273500000000     0.030200000000     0.675500000000     0          
C28      C      0.295600000000     0.481600000000     0.644500000000     0          
H29      H      0.287400000000     0.469400000000     0.611700000000     0          
C30      C      0.259000000000     0.482000000000     0.682600000000     0          
C31      C      0.207800000000     0.462400000000     0.669600000000     0          
H32      H      0.186500000000     0.464600000000     0.698500000000     0          
H33      H      0.194000000000     0.482200000000     0.643000000000     0          
H34      H      0.210100000000     0.428200000000     0.659100000000     0          
C35      C      0.795600000000     0.481600000000     0.144500000000     0          
H36      H      0.787400000000     0.469400000000     0.111700000000     0          
C37      C      0.759000000000     0.482000000000     0.182600000000     0          
H38      H      0.726500000000     0.469800000000     0.175500000000     0          
C39      C      0.355500000000     0.295600000000     0.518400000000     0          
H40      H      0.388300000000     0.287400000000     0.530600000000     0          
C41      C      0.317400000000     0.259000000000     0.518000000000     0          
H42      H      0.324500000000     0.226500000000     0.530200000000     0          
C43      C      0.355500000000     0.795600000000     0.018400000000     0          
H44      H      0.388300000000     0.787400000000     0.030600000000     0          
C45      C      0.317400000000     0.759000000000     0.018000000000     0          
H46      H      0.324500000000     0.726500000000     0.030200000000     0          
C47      C      0.855500000000     0.295600000000     0.018400000000     0          
H48      H      0.888300000000     0.287400000000     0.030600000000     0          
C49      C      0.817400000000     0.259000000000     0.018000000000     0          
C50      C      0.830400000000     0.207800000000     0.037600000000     0          
H51      H      0.801500000000     0.186500000000     0.035400000000     0          
H52      H      0.857000000000     0.194000000000     0.017800000000     0          
H53      H      0.840900000000     0.210100000000     0.071800000000     0          
C54      C      0.855500000000     0.795600000000     0.518400000000     0          
H55      H      0.888300000000     0.787400000000     0.530600000000     0          
C56      C      0.817400000000     0.759000000000     0.518000000000     0          
H57      H      0.824500000000     0.726500000000     0.530200000000     0          
C58      C      0.355500000000     0.204400000000     0.981600000000     0          
H59      H      0.388300000000     0.212600000000     0.969400000000     0          
C60      C      0.317400000000     0.241000000000     0.982000000000     0          
H61      H      0.324500000000     0.273500000000     0.969800000000     0          
C62      C      0.855500000000     0.704400000000     0.981600000000     0          
H63      H      0.888300000000     0.712600000000     0.969400000000     0          
C64      C      0.817400000000     0.741000000000     0.982000000000     0          
H65      H      0.824500000000     0.773500000000     0.969800000000     0          
C66      C      0.855500000000     0.204400000000     0.481600000000     0          
H67      H      0.888300000000     0.212600000000     0.469400000000     0          
C68      C      0.817400000000     0.241000000000     0.482000000000     0          
H69      H      0.824500000000     0.273500000000     0.469800000000     0          
C70      C      0.644500000000     0.704400000000     0.518400000000     0          
H71      H      0.611700000000     0.712600000000     0.530600000000     0          
C72      C      0.682600000000     0.741000000000     0.518000000000     0          
H73      H      0.675500000000     0.773500000000     0.530200000000     0          
C74      C      0.644500000000     0.204400000000     0.018400000000     0          
H75      H      0.611700000000     0.212600000000     0.030600000000     0          
C76      C      0.682600000000     0.241000000000     0.018000000000     0          
H77      H      0.675500000000     0.273500000000     0.030200000000     0          
C78      C      0.144500000000     0.704400000000     0.018400000000     0          
H79      H      0.111700000000     0.712600000000     0.030600000000     0          
C80      C      0.182600000000     0.741000000000     0.018000000000     0          
C81      C      0.169600000000     0.792200000000     0.037600000000     0          
H82      H      0.198500000000     0.813500000000     0.035400000000     0          
H83      H      0.143000000000     0.806000000000     0.017800000000     0          
H84      H      0.159100000000     0.789900000000     0.071800000000     0          
C85      C      0.144500000000     0.204400000000     0.518400000000     0          
H86      H      0.111700000000     0.212600000000     0.530600000000     0          
C87      C      0.182600000000     0.241000000000     0.518000000000     0          
C88      C      0.169600000000     0.292200000000     0.537600000000     0          
H89      H      0.198500000000     0.313500000000     0.535400000000     0          
H90      H      0.143000000000     0.306000000000     0.517800000000     0          
H91      H      0.159100000000     0.289900000000     0.571800000000     0          
C92      C      0.644500000000     0.295600000000     0.481600000000     0          
H93      H      0.611700000000     0.287400000000     0.469400000000     0          
C94      C      0.682600000000     0.259000000000     0.482000000000     0          
H95      H      0.675500000000     0.226500000000     0.469800000000     0          
C96      C      0.644500000000     0.795600000000     0.981600000000     0          
H97      H      0.611700000000     0.787400000000     0.969400000000     0          
C98      C      0.682600000000     0.759000000000     0.982000000000     0          
C99      C      0.669600000000     0.707800000000     0.962400000000     0          
H100     H      0.698500000000     0.686500000000     0.964600000000     0          
H101     H      0.643000000000     0.694000000000     0.982200000000     0          
H102     H      0.659100000000     0.710100000000     0.928200000000     0          
C103     C      0.144500000000     0.295600000000     0.981600000000     0          
H104     H      0.111700000000     0.287400000000     0.969400000000     0          
C105     C      0.182600000000     0.259000000000     0.982000000000     0          
H106     H      0.175500000000     0.226500000000     0.969800000000     0          
C107     C      0.518400000000     0.355500000000     0.295600000000     0          
H108     H      0.530600000000     0.388300000000     0.287400000000     0          
C109     C      0.518000000000     0.317400000000     0.259000000000     0          
H110     H      0.530200000000     0.324500000000     0.226500000000     0          
C111     C      0.518400000000     0.855500000000     0.795600000000     0          
H112     H      0.530600000000     0.888300000000     0.787400000000     0          
C113     C      0.518000000000     0.817400000000     0.759000000000     0          
H114     H      0.530200000000     0.824500000000     0.726500000000     0          
C115     C      0.018400000000     0.355500000000     0.795600000000     0          
H116     H      0.030600000000     0.388300000000     0.787400000000     0          
C117     C      0.018000000000     0.317400000000     0.759000000000     0          
H118     H      0.030200000000     0.324500000000     0.726500000000     0          
C119     C      0.018400000000     0.855500000000     0.295600000000     0          
H120     H      0.030600000000     0.888300000000     0.287400000000     0          
C121     C      0.018000000000     0.817400000000     0.259000000000     0          
H122     H      0.030200000000     0.824500000000     0.226500000000     0          
C123     C      0.481600000000     0.355500000000     0.704400000000     0          
H124     H      0.469400000000     0.388300000000     0.712600000000     0          
C125     C      0.482000000000     0.317400000000     0.741000000000     0          
H126     H      0.469800000000     0.324500000000     0.773500000000     0          
C127     C      0.481600000000     0.855500000000     0.204400000000     0          
H128     H      0.469400000000     0.888300000000     0.212600000000     0          
C129     C      0.482000000000     0.817400000000     0.241000000000     0          
H130     H      0.469800000000     0.824500000000     0.273500000000     0          
C131     C      0.981600000000     0.855500000000     0.704400000000     0          
H132     H      0.969400000000     0.888300000000     0.712600000000     0          
C133     C      0.982000000000     0.817400000000     0.741000000000     0          
H134     H      0.969800000000     0.824500000000     0.773500000000     0          
C135     C      0.518400000000     0.644500000000     0.704400000000     0          
H136     H      0.530600000000     0.611700000000     0.712600000000     0          
C137     C      0.518000000000     0.682600000000     0.741000000000     0          
H138     H      0.530200000000     0.675500000000     0.773500000000     0          
C139     C      0.518400000000     0.144500000000     0.204400000000     0          
H140     H      0.530600000000     0.111700000000     0.212600000000     0          
C141     C      0.518000000000     0.182600000000     0.241000000000     0          
C142     C      0.537600000000     0.169600000000     0.292200000000     0          
H143     H      0.535400000000     0.198500000000     0.313500000000     0          
H144     H      0.517800000000     0.143000000000     0.306000000000     0          
H145     H      0.571800000000     0.159100000000     0.289900000000     0          
C146     C      0.018400000000     0.644500000000     0.204400000000     0          
H147     H      0.030600000000     0.611700000000     0.212600000000     0          
C148     C      0.018000000000     0.682600000000     0.241000000000     0          
C149     C      0.037600000000     0.669600000000     0.292200000000     0          
H150     H      0.035400000000     0.698500000000     0.313500000000     0          
H151     H      0.017800000000     0.643000000000     0.306000000000     0          
H152     H      0.071800000000     0.659100000000     0.289900000000     0          
C153     C      0.018400000000     0.144500000000     0.704400000000     0          
H154     H      0.030600000000     0.111700000000     0.712600000000     0          
C155     C      0.018000000000     0.182600000000     0.741000000000     0          
H156     H      0.030200000000     0.175500000000     0.773500000000     0          
C157     C      0.481600000000     0.644500000000     0.295600000000     0          
H158     H      0.469400000000     0.611700000000     0.287400000000     0          
C159     C      0.482000000000     0.682600000000     0.259000000000     0          
H160     H      0.469800000000     0.675500000000     0.226500000000     0          
C161     C      0.481600000000     0.144500000000     0.795600000000     0          
H162     H      0.469400000000     0.111700000000     0.787400000000     0          
C163     C      0.482000000000     0.182600000000     0.759000000000     0          
H164     H      0.469800000000     0.175500000000     0.726500000000     0          
C165     C      0.981600000000     0.644500000000     0.795600000000     0          
H166     H      0.969400000000     0.611700000000     0.787400000000     0          
C167     C      0.982000000000     0.682600000000     0.759000000000     0          
H168     H      0.969800000000     0.675500000000     0.726500000000     0          
C169     C      0.518400000000     0.295600000000     0.644500000000     0          
H170     H      0.530600000000     0.287400000000     0.611700000000     0          
C171     C      0.518000000000     0.259000000000     0.682600000000     0          
C172     C      0.537600000000     0.207800000000     0.669600000000     0          
H173     H      0.535400000000     0.186500000000     0.698500000000     0          
H174     H      0.517800000000     0.194000000000     0.643000000000     0          
H175     H      0.571800000000     0.210100000000     0.659100000000     0          
C176     C      0.518400000000     0.795600000000     0.144500000000     0          
H177     H      0.530600000000     0.787400000000     0.111700000000     0          
C178     C      0.518000000000     0.759000000000     0.182600000000     0          
C179     C      0.537600000000     0.707800000000     0.169600000000     0          
H180     H      0.535400000000     0.686500000000     0.198500000000     0          
H181     H      0.517800000000     0.694000000000     0.143000000000     0          
H182     H      0.571800000000     0.710100000000     0.159100000000     0          
C183     C      0.018400000000     0.795600000000     0.644500000000     0          
H184     H      0.030600000000     0.787400000000     0.611700000000     0          
C185     C      0.018000000000     0.759000000000     0.682600000000     0          
C186     C      0.037600000000     0.707800000000     0.669600000000     0          
H187     H      0.035400000000     0.686500000000     0.698500000000     0          
H188     H      0.017800000000     0.694000000000     0.643000000000     0          
H189     H      0.071800000000     0.710100000000     0.659100000000     0          
C190     C      0.481600000000     0.704400000000     0.644500000000     0          
H191     H      0.469400000000     0.712600000000     0.611700000000     0          
C192     C      0.482000000000     0.741000000000     0.682600000000     0          
H193     H      0.469800000000     0.773500000000     0.675500000000     0          
C194     C      0.481600000000     0.204400000000     0.144500000000     0          
H195     H      0.469400000000     0.212600000000     0.111700000000     0          
C196     C      0.482000000000     0.241000000000     0.182600000000     0          
H197     H      0.469800000000     0.273500000000     0.175500000000     0          
C198     C      0.981600000000     0.704400000000     0.144500000000     0          
H199     H      0.969400000000     0.712600000000     0.111700000000     0          
C200     C      0.982000000000     0.741000000000     0.182600000000     0          
H201     H      0.969800000000     0.773500000000     0.175500000000     0          
C202     C      0.981600000000     0.204400000000     0.644500000000     0          
H203     H      0.969400000000     0.212600000000     0.611700000000     0          
C204     C      0.982000000000     0.241000000000     0.682600000000     0          
H205     H      0.969800000000     0.273500000000     0.675500000000     0          
C206     C      0.518400000000     0.704400000000     0.355500000000     0          
H207     H      0.530600000000     0.712600000000     0.388300000000     0          
C208     C      0.518000000000     0.741000000000     0.317400000000     0          
H209     H      0.530200000000     0.773500000000     0.324500000000     0          
C210     C      0.518400000000     0.204400000000     0.855500000000     0          
H211     H      0.530600000000     0.212600000000     0.888300000000     0          
C212     C      0.518000000000     0.241000000000     0.817400000000     0          
H213     H      0.530200000000     0.273500000000     0.824500000000     0          
C214     C      0.018400000000     0.704400000000     0.855500000000     0          
H215     H      0.030600000000     0.712600000000     0.888300000000     0          
C216     C      0.018000000000     0.741000000000     0.817400000000     0          
H217     H      0.030200000000     0.773500000000     0.824500000000     0          
C218     C      0.481600000000     0.295600000000     0.355500000000     0          
H219     H      0.469400000000     0.287400000000     0.388300000000     0          
C220     C      0.482000000000     0.259000000000     0.317400000000     0          
H221     H      0.469800000000     0.226500000000     0.324500000000     0          
C222     C      0.481600000000     0.795600000000     0.855500000000     0          
H223     H      0.469400000000     0.787400000000     0.888300000000     0          
C224     C      0.482000000000     0.759000000000     0.817400000000     0          
C225     C      0.462400000000     0.707800000000     0.830400000000     0          
H226     H      0.464600000000     0.686500000000     0.801500000000     0          
H227     H      0.482200000000     0.694000000000     0.857000000000     0          
H228     H      0.428200000000     0.710100000000     0.840900000000     0          
C229     C      0.981600000000     0.295600000000     0.855500000000     0          
H230     H      0.969400000000     0.287400000000     0.888300000000     0          
C231     C      0.982000000000     0.259000000000     0.817400000000     0          
C232     C      0.962400000000     0.207800000000     0.830400000000     0          
H233     H      0.964600000000     0.186500000000     0.801500000000     0          
H234     H      0.982200000000     0.194000000000     0.857000000000     0          
H235     H      0.928200000000     0.210100000000     0.840900000000     0          
C236     C      0.981600000000     0.795600000000     0.355500000000     0          
H237     H      0.969400000000     0.787400000000     0.388300000000     0          
C238     C      0.982000000000     0.759000000000     0.317400000000     0          
H239     H      0.969800000000     0.726500000000     0.324500000000     0          
C240     C      0.295600000000     0.355500000000     0.481600000000     0          
H241     H      0.287400000000     0.388300000000     0.469400000000     0          
C242     C      0.259000000000     0.317400000000     0.482000000000     0          
H243     H      0.226500000000     0.324500000000     0.469800000000     0          
C244     C      0.295600000000     0.855500000000     0.981600000000     0          
H245     H      0.287400000000     0.888300000000     0.969400000000     0          
C246     C      0.259000000000     0.817400000000     0.982000000000     0          
H247     H      0.226500000000     0.824500000000     0.969800000000     0          
C248     C      0.795600000000     0.355500000000     0.981600000000     0          
H249     H      0.787400000000     0.388300000000     0.969400000000     0          
C250     C      0.759000000000     0.317400000000     0.982000000000     0          
H251     H      0.726500000000     0.324500000000     0.969800000000     0          
C252     C      0.795600000000     0.855500000000     0.481600000000     0          
H253     H      0.787400000000     0.888300000000     0.469400000000     0          
C254     C      0.759000000000     0.817400000000     0.482000000000     0          
H255     H      0.726500000000     0.824500000000     0.469800000000     0          
C256     C      0.704400000000     0.355500000000     0.518400000000     0          
H257     H      0.712600000000     0.388300000000     0.530600000000     0          
C258     C      0.741000000000     0.317400000000     0.518000000000     0          
H259     H      0.773500000000     0.324500000000     0.530200000000     0          
C260     C      0.704400000000     0.855500000000     0.018400000000     0          
H261     H      0.712600000000     0.888300000000     0.030600000000     0          
C262     C      0.741000000000     0.817400000000     0.018000000000     0          
H263     H      0.773500000000     0.824500000000     0.030200000000     0          
C264     C      0.204400000000     0.355500000000     0.018400000000     0          
H265     H      0.212600000000     0.388300000000     0.030600000000     0          
C266     C      0.241000000000     0.317400000000     0.018000000000     0          
C267     C      0.292200000000     0.330400000000     0.037600000000     0          
H268     H      0.313500000000     0.301500000000     0.035400000000     0          
H269     H      0.306000000000     0.357000000000     0.017800000000     0          
H270     H      0.289900000000     0.340900000000     0.071800000000     0          
C271     C      0.704400000000     0.644500000000     0.481600000000     0          
H272     H      0.712600000000     0.611700000000     0.469400000000     0          
C273     C      0.741000000000     0.682600000000     0.482000000000     0          
C274     C      0.792200000000     0.669600000000     0.462400000000     0          
H275     H      0.813500000000     0.698500000000     0.464600000000     0          
H276     H      0.806000000000     0.643000000000     0.482200000000     0          
H277     H      0.789900000000     0.659100000000     0.428200000000     0          
C278     C      0.704400000000     0.144500000000     0.981600000000     0          
H279     H      0.712600000000     0.111700000000     0.969400000000     0          
C280     C      0.741000000000     0.182600000000     0.982000000000     0          
H281     H      0.773500000000     0.175500000000     0.969800000000     0          
C282     C      0.204400000000     0.644500000000     0.981600000000     0          
H283     H      0.212600000000     0.611700000000     0.969400000000     0          
C284     C      0.241000000000     0.682600000000     0.982000000000     0          
H285     H      0.273500000000     0.675500000000     0.969800000000     0          
C286     C      0.204400000000     0.144500000000     0.481600000000     0          
H287     H      0.212600000000     0.111700000000     0.469400000000     0          
C288     C      0.241000000000     0.182600000000     0.482000000000     0          
H289     H      0.273500000000     0.175500000000     0.469800000000     0          
C290     C      0.295600000000     0.144500000000     0.018400000000     0          
H291     H      0.287400000000     0.111700000000     0.030600000000     0          
C292     C      0.259000000000     0.182600000000     0.018000000000     0          
H293     H      0.226500000000     0.175500000000     0.030200000000     0          
C294     C      0.795600000000     0.644500000000     0.018400000000     0          
H295     H      0.787400000000     0.611700000000     0.030600000000     0          
C296     C      0.759000000000     0.682600000000     0.018000000000     0          
H297     H      0.726500000000     0.675500000000     0.030200000000     0          
C298     C      0.795600000000     0.144500000000     0.518400000000     0          
H299     H      0.787400000000     0.111700000000     0.530600000000     0          
C300     C      0.759000000000     0.182600000000     0.518000000000     0          
C301     C      0.707800000000     0.169600000000     0.537600000000     0          
H302     H      0.686500000000     0.198500000000     0.535400000000     0          
H303     H      0.694000000000     0.143000000000     0.517800000000     0          
H304     H      0.710100000000     0.159100000000     0.571800000000     0          
C305     C      0.355500000000     0.518400000000     0.704400000000     0          
H306     H      0.388300000000     0.530600000000     0.712600000000     0          
C307     C      0.317400000000     0.518000000000     0.741000000000     0          
H308     H      0.324500000000     0.530200000000     0.773500000000     0          
C309     C      0.855500000000     0.518400000000     0.204400000000     0          
H310     H      0.888300000000     0.530600000000     0.212600000000     0          
C311     C      0.817400000000     0.518000000000     0.241000000000     0          
H312     H      0.824500000000     0.530200000000     0.273500000000     0          
C313     C      0.355500000000     0.981600000000     0.795600000000     0          
H314     H      0.388300000000     0.969400000000     0.787400000000     0          
C315     C      0.317400000000     0.982000000000     0.759000000000     0          
C316     C      0.330400000000     0.962400000000     0.707800000000     0          
H317     H      0.301500000000     0.964600000000     0.686500000000     0          
H318     H      0.357000000000     0.982200000000     0.694000000000     0          
H319     H      0.340900000000     0.928200000000     0.710100000000     0          
C320     C      0.855500000000     0.481600000000     0.795600000000     0          
H321     H      0.888300000000     0.469400000000     0.787400000000     0          
C322     C      0.817400000000     0.482000000000     0.759000000000     0          
H323     H      0.824500000000     0.469800000000     0.726500000000     0          
C324     C      0.644500000000     0.518400000000     0.295600000000     0          
H325     H      0.611700000000     0.530600000000     0.287400000000     0          
C326     C      0.682600000000     0.518000000000     0.259000000000     0          
C327     C      0.669600000000     0.537600000000     0.207800000000     0          
H328     H      0.698500000000     0.535400000000     0.186500000000     0          
H329     H      0.643000000000     0.517800000000     0.194000000000     0          
H330     H      0.659100000000     0.571800000000     0.210100000000     0          
C331     C      0.144500000000     0.518400000000     0.795600000000     0          
H332     H      0.111700000000     0.530600000000     0.787400000000     0          
C333     C      0.182600000000     0.518000000000     0.759000000000     0          
H334     H      0.175500000000     0.530200000000     0.726500000000     0          
C335     C      0.644500000000     0.481600000000     0.704400000000     0          
H336     H      0.611700000000     0.469400000000     0.712600000000     0          
C337     C      0.682600000000     0.482000000000     0.741000000000     0          
H338     H      0.675500000000     0.469800000000     0.773500000000     0          
C339     C      0.144500000000     0.981600000000     0.704400000000     0          
H340     H      0.111700000000     0.969400000000     0.712600000000     0          
C341     C      0.182600000000     0.982000000000     0.741000000000     0          
H342     H      0.175500000000     0.969800000000     0.773500000000     0          
C343     C      0.704400000000     0.981600000000     0.144500000000     0          
H344     H      0.712600000000     0.969400000000     0.111700000000     0          
C345     C      0.741000000000     0.982000000000     0.182600000000     0          
C346     C      0.792200000000     0.962400000000     0.169600000000     0          
H347     H      0.813500000000     0.964600000000     0.198500000000     0          
H348     H      0.806000000000     0.982200000000     0.143000000000     0          
H349     H      0.789900000000     0.928200000000     0.159100000000     0          
C350     C      0.204400000000     0.481600000000     0.144500000000     0          
H351     H      0.212600000000     0.469400000000     0.111700000000     0          
C352     C      0.241000000000     0.482000000000     0.182600000000     0          
H353     H      0.273500000000     0.469800000000     0.175500000000     0          
C354     C      0.295600000000     0.018400000000     0.144500000000     0          
H355     H      0.287400000000     0.030600000000     0.111700000000     0          
C356     C      0.259000000000     0.018000000000     0.182600000000     0          
H357     H      0.226500000000     0.030200000000     0.175500000000     0          
C358     C      0.795600000000     0.018400000000     0.644500000000     0          
H359     H      0.787400000000     0.030600000000     0.611700000000     0          
C360     C      0.759000000000     0.018000000000     0.682600000000     0          
H361     H      0.726500000000     0.030200000000     0.675500000000     0          
C362     C      0.295600000000     0.481600000000     0.355500000000     0          
H363     H      0.287400000000     0.469400000000     0.388300000000     0          
C364     C      0.259000000000     0.482000000000     0.317400000000     0          
H365     H      0.226500000000     0.469800000000     0.324500000000     0          
C366     C      0.795600000000     0.981600000000     0.355500000000     0          
H367     H      0.787400000000     0.969400000000     0.388300000000     0          
C368     C      0.759000000000     0.982000000000     0.317400000000     0          
H369     H      0.726500000000     0.969800000000     0.324500000000     0          
C370     C      0.704400000000     0.018400000000     0.855500000000     0          
H371     H      0.712600000000     0.030600000000     0.888300000000     0          
C372     C      0.741000000000     0.018000000000     0.817400000000     0          
C373     C      0.792200000000     0.037600000000     0.830400000000     0          
H374     H      0.813500000000     0.035400000000     0.801500000000     0          
H375     H      0.806000000000     0.017800000000     0.857000000000     0          
H376     H      0.789900000000     0.071800000000     0.840900000000     0          
C377     C      0.204400000000     0.018400000000     0.355500000000     0          
H378     H      0.212600000000     0.030600000000     0.388300000000     0          
C379     C      0.241000000000     0.018000000000     0.317400000000     0          
C380     C      0.292200000000     0.037600000000     0.330400000000     0          
H381     H      0.313500000000     0.035400000000     0.301500000000     0          
H382     H      0.306000000000     0.017800000000     0.357000000000     0          
H383     H      0.289900000000     0.071800000000     0.340900000000     0          
C384     C      0.144500000000     0.795600000000     0.518400000000     0          
H385     H      0.111700000000     0.787400000000     0.530600000000     0          
C386     C      0.182600000000     0.759000000000     0.518000000000     0          
C387     C      0.169600000000     0.707800000000     0.537600000000     0          
H388     H      0.198500000000     0.686500000000     0.535400000000     0          
H389     H      0.143000000000     0.694000000000     0.517800000000     0          
H390     H      0.159100000000     0.710100000000     0.571800000000     0          
C391     C      0.355500000000     0.704400000000     0.518400000000     0          
H392     H      0.388300000000     0.712600000000     0.530600000000     0          
C393     C      0.317400000000     0.741000000000     0.518000000000     0          
H394     H      0.324500000000     0.773500000000     0.530200000000     0          
C395     C      0.018400000000     0.144500000000     0.295600000000     0          
H396     H      0.030600000000     0.111700000000     0.287400000000     0          
C397     C      0.018000000000     0.182600000000     0.259000000000     0          
H398     H      0.030200000000     0.175500000000     0.226500000000     0          
C399     C      0.018400000000     0.355500000000     0.204400000000     0          
H400     H      0.030600000000     0.388300000000     0.212600000000     0          
C401     C      0.018000000000     0.317400000000     0.241000000000     0          
C402     C      0.037600000000     0.330400000000     0.292200000000     0          
H403     H      0.035400000000     0.301500000000     0.313500000000     0          
H404     H      0.017800000000     0.357000000000     0.306000000000     0          
H405     H      0.071800000000     0.340900000000     0.289900000000     0          
C406     C      0.981600000000     0.204400000000     0.355500000000     0          
H407     H      0.969400000000     0.212600000000     0.388300000000     0          
C408     C      0.982000000000     0.241000000000     0.317400000000     0          
H409     H      0.969800000000     0.273500000000     0.324500000000     0          
C410     C      0.981600000000     0.295600000000     0.144500000000     0          
H411     H      0.969400000000     0.287400000000     0.111700000000     0          
C412     C      0.982000000000     0.259000000000     0.182600000000     0          
H413     H      0.969800000000     0.226500000000     0.175500000000     0          
C414     C      0.295600000000     0.644500000000     0.481600000000     0          
H415     H      0.287400000000     0.611700000000     0.469400000000     0          
C416     C      0.259000000000     0.682600000000     0.482000000000     0          
H417     H      0.226500000000     0.675500000000     0.469800000000     0          
C418     C      0.204400000000     0.855500000000     0.481600000000     0          
H419     H      0.212600000000     0.888300000000     0.469400000000     0          
C420     C      0.241000000000     0.817400000000     0.482000000000     0          
H421     H      0.273500000000     0.824500000000     0.469800000000     0          
C422     C      0.644500000000     0.981600000000     0.795600000000     0          
H423     H      0.611700000000     0.969400000000     0.787400000000     0          
C424     C      0.682600000000     0.982000000000     0.759000000000     0          
H425     H      0.675500000000     0.969800000000     0.726500000000     0          
C426     C      0.144500000000     0.981600000000     0.295600000000     0          
H427     H      0.111700000000     0.969400000000     0.287400000000     0          
C428     C      0.182600000000     0.982000000000     0.259000000000     0          
H429     H      0.175500000000     0.969800000000     0.226500000000     0          
C430     C      0.644500000000     0.018400000000     0.204400000000     0          
H431     H      0.611700000000     0.030600000000     0.212600000000     0          
C432     C      0.682600000000     0.018000000000     0.241000000000     0          
H433     H      0.675500000000     0.030200000000     0.273500000000     0          
C434     C      0.144500000000     0.518400000000     0.204400000000     0          
H435     H      0.111700000000     0.530600000000     0.212600000000     0          
C436     C      0.182600000000     0.518000000000     0.241000000000     0          
C437     C      0.169600000000     0.537600000000     0.292200000000     0          
H438     H      0.198500000000     0.535400000000     0.313500000000     0          
H439     H      0.143000000000     0.517800000000     0.306000000000     0          
H440     H      0.159100000000     0.571800000000     0.289900000000     0          
C441     C      0.355500000000     0.981600000000     0.204400000000     0          
H442     H      0.388300000000     0.969400000000     0.212600000000     0          
C443     C      0.317400000000     0.982000000000     0.241000000000     0          
H444     H      0.324500000000     0.969800000000     0.273500000000     0          
C445     C      0.855500000000     0.981600000000     0.704400000000     0          
H446     H      0.888300000000     0.969400000000     0.712600000000     0          
C447     C      0.817400000000     0.982000000000     0.741000000000     0          
H448     H      0.824500000000     0.969800000000     0.773500000000     0          
C449     C      0.355500000000     0.518400000000     0.295600000000     0          
H450     H      0.388300000000     0.530600000000     0.287400000000     0          
C451     C      0.317400000000     0.518000000000     0.259000000000     0          
H452     H      0.324500000000     0.530200000000     0.226500000000     0          
C453     C      0.855500000000     0.018400000000     0.295600000000     0          
H454     H      0.888300000000     0.030600000000     0.287400000000     0          
C455     C      0.817400000000     0.018000000000     0.259000000000     0          
H456     H      0.824500000000     0.030200000000     0.226500000000     0          
Zr457    Zr     0.407800000000     0.500000000000     0.500000000000     0          
Zr458    Zr     0.407800000000     0.000000000000     0.000000000000     0          
Zr459    Zr     0.907800000000     0.500000000000     0.000000000000     0          
Zr460    Zr     0.907800000000     0.000000000000     0.500000000000     0          
Zr461    Zr     0.592200000000     0.500000000000     0.500000000000     0          
Zr462    Zr     0.592200000000     0.000000000000     0.000000000000     0          
Zr463    Zr     0.092200000000     0.500000000000     0.000000000000     0          
Zr464    Zr     0.092200000000     0.000000000000     0.500000000000     0          
Zr465    Zr     0.500000000000     0.407800000000     0.500000000000     0          
Zr466    Zr     0.500000000000     0.907800000000     0.000000000000     0          
Zr467    Zr     0.000000000000     0.407800000000     0.000000000000     0          
Zr468    Zr     0.000000000000     0.907800000000     0.500000000000     0          
Zr469    Zr     0.500000000000     0.592200000000     0.500000000000     0          
Zr470    Zr     0.500000000000     0.092200000000     0.000000000000     0          
Zr471    Zr     0.000000000000     0.592200000000     0.000000000000     0          
Zr472    Zr     0.000000000000     0.092200000000     0.500000000000     0          
Zr473    Zr     0.500000000000     0.500000000000     0.407800000000     0          
Zr474    Zr     0.500000000000     0.000000000000     0.907800000000     0          
Zr475    Zr     0.000000000000     0.500000000000     0.907800000000     0          
Zr476    Zr     0.000000000000     0.000000000000     0.407800000000     0          
Zr477    Zr     0.500000000000     0.500000000000     0.592200000000     0          
Zr478    Zr     0.500000000000     0.000000000000     0.092200000000     0          
Zr479    Zr     0.000000000000     0.500000000000     0.092200000000     0          
Zr480    Zr     0.000000000000     0.000000000000     0.592200000000     0          
O481     O      0.448440000000     0.551560000000     0.551560000000     0          
O482     O      0.448440000000     0.051560000000     0.051560000000     0          
O483     O      0.461560000000     0.038440000000     0.038440000000     0          
O484     O      0.948440000000     0.551560000000     0.051560000000     0          
O485     O      0.961560000000     0.538440000000     0.038440000000     0          
O486     O      0.948440000000     0.051560000000     0.551560000000     0          
O487     O      0.961560000000     0.038440000000     0.538440000000     0          
O488     O      0.551560000000     0.448440000000     0.551560000000     0          
O489     O      0.551560000000     0.948440000000     0.051560000000     0          
O490     O      0.538440000000     0.961560000000     0.038440000000     0          
O491     O      0.051560000000     0.448440000000     0.051560000000     0          
O492     O      0.038440000000     0.461560000000     0.038440000000     0          
O493     O      0.051560000000     0.948440000000     0.551560000000     0          
O494     O      0.038440000000     0.961560000000     0.538440000000     0          
O495     O      0.551560000000     0.551560000000     0.448440000000     0          
O496     O      0.551560000000     0.051560000000     0.948440000000     0          
O497     O      0.538440000000     0.038440000000     0.961560000000     0          
O498     O      0.051560000000     0.551560000000     0.948440000000     0          
O499     O      0.038440000000     0.538440000000     0.961560000000     0          
O500     O      0.051560000000     0.051560000000     0.448440000000     0          
O501     O      0.038440000000     0.038440000000     0.461560000000     0          
O502     O      0.448440000000     0.448440000000     0.448440000000     0          
O503     O      0.448440000000     0.948440000000     0.948440000000     0          
O504     O      0.461560000000     0.961560000000     0.961560000000     0          
O505     O      0.948440000000     0.448440000000     0.948440000000     0          
O506     O      0.961560000000     0.461560000000     0.961560000000     0          
O507     O      0.948440000000     0.948440000000     0.448440000000     0          
O508     O      0.961560000000     0.961560000000     0.461560000000     0          
O509     O      0.551560000000     0.448440000000     0.448440000000     0          
O510     O      0.551560000000     0.948440000000     0.948440000000     0          
O511     O      0.538440000000     0.961560000000     0.961560000000     0          
O512     O      0.051560000000     0.448440000000     0.948440000000     0          
O513     O      0.038440000000     0.461560000000     0.961560000000     0          
O514     O      0.051560000000     0.948440000000     0.448440000000     0          
O515     O      0.038440000000     0.961560000000     0.461560000000     0          
O516     O      0.448440000000     0.551560000000     0.448440000000     0          
O517     O      0.448440000000     0.051560000000     0.948440000000     0          
O518     O      0.461560000000     0.038440000000     0.961560000000     0          
O519     O      0.948440000000     0.551560000000     0.948440000000     0          
O520     O      0.961560000000     0.538440000000     0.961560000000     0          
O521     O      0.948440000000     0.051560000000     0.448440000000     0          
O522     O      0.961560000000     0.038440000000     0.461560000000     0          
O523     O      0.551560000000     0.551560000000     0.551560000000     0          
O524     O      0.551560000000     0.051560000000     0.051560000000     0          
O525     O      0.538440000000     0.038440000000     0.038440000000     0          
O526     O      0.051560000000     0.551560000000     0.051560000000     0          
O527     O      0.038440000000     0.538440000000     0.038440000000     0          
O528     O      0.051560000000     0.051560000000     0.551560000000     0          
O529     O      0.038440000000     0.038440000000     0.538440000000     0          
O530     O      0.448440000000     0.448440000000     0.551560000000     0          
O531     O      0.448440000000     0.948440000000     0.051560000000     0          
O532     O      0.461560000000     0.961560000000     0.038440000000     0          
O533     O      0.948440000000     0.448440000000     0.051560000000     0          
O534     O      0.961560000000     0.461560000000     0.038440000000     0          
O535     O      0.948440000000     0.948440000000     0.551560000000     0          
O536     O      0.961560000000     0.961560000000     0.538440000000     0          
O537     O      0.366910000000     0.500000000000     0.428050000000     0          
O538     O      0.366910000000     0.000000000000     0.928050000000     0          
O539     O      0.866910000000     0.500000000000     0.928050000000     0          
O540     O      0.866910000000     0.000000000000     0.428050000000     0          
O541     O      0.633090000000     0.500000000000     0.428050000000     0          
O542     O      0.633090000000     0.000000000000     0.928050000000     0          
O543     O      0.133090000000     0.500000000000     0.928050000000     0          
O544     O      0.133090000000     0.000000000000     0.428050000000     0          
O545     O      0.633090000000     0.500000000000     0.571950000000     0          
O546     O      0.633090000000     0.000000000000     0.071950000000     0          
O547     O      0.133090000000     0.500000000000     0.071950000000     0          
O548     O      0.133090000000     0.000000000000     0.571950000000     0          
O549     O      0.366910000000     0.500000000000     0.571950000000     0          
O550     O      0.366910000000     0.000000000000     0.071950000000     0          
O551     O      0.866910000000     0.500000000000     0.071950000000     0          
O552     O      0.866910000000     0.000000000000     0.571950000000     0          
O553     O      0.428050000000     0.366910000000     0.500000000000     0          
O554     O      0.428050000000     0.866910000000     0.000000000000     0          
O555     O      0.928050000000     0.366910000000     0.000000000000     0          
O556     O      0.928050000000     0.866910000000     0.500000000000     0          
O557     O      0.428050000000     0.633090000000     0.500000000000     0          
O558     O      0.428050000000     0.133090000000     0.000000000000     0          
O559     O      0.928050000000     0.633090000000     0.000000000000     0          
O560     O      0.928050000000     0.133090000000     0.500000000000     0          
O561     O      0.571950000000     0.633090000000     0.500000000000     0          
O562     O      0.571950000000     0.133090000000     0.000000000000     0          
O563     O      0.071950000000     0.633090000000     0.000000000000     0          
O564     O      0.071950000000     0.133090000000     0.500000000000     0          
O565     O      0.571950000000     0.366910000000     0.500000000000     0          
O566     O      0.571950000000     0.866910000000     0.000000000000     0          
O567     O      0.071950000000     0.366910000000     0.000000000000     0          
O568     O      0.071950000000     0.866910000000     0.500000000000     0          
O569     O      0.500000000000     0.428050000000     0.366910000000     0          
O570     O      0.500000000000     0.928050000000     0.866910000000     0          
O571     O      0.000000000000     0.428050000000     0.866910000000     0          
O572     O      0.000000000000     0.928050000000     0.366910000000     0          
O573     O      0.500000000000     0.428050000000     0.633090000000     0          
O574     O      0.500000000000     0.928050000000     0.133090000000     0          
O575     O      0.000000000000     0.428050000000     0.133090000000     0          
O576     O      0.000000000000     0.928050000000     0.633090000000     0          
O577     O      0.500000000000     0.571950000000     0.633090000000     0          
O578     O      0.500000000000     0.071950000000     0.133090000000     0          
O579     O      0.000000000000     0.571950000000     0.133090000000     0          
O580     O      0.000000000000     0.071950000000     0.633090000000     0          
O581     O      0.500000000000     0.571950000000     0.366910000000     0          
O582     O      0.500000000000     0.071950000000     0.866910000000     0          
O583     O      0.000000000000     0.571950000000     0.866910000000     0          
O584     O      0.000000000000     0.071950000000     0.366910000000     0          
O585     O      0.500000000000     0.366910000000     0.571950000000     0          
O586     O      0.500000000000     0.866910000000     0.071950000000     0          
O587     O      0.000000000000     0.366910000000     0.071950000000     0          
O588     O      0.000000000000     0.866910000000     0.571950000000     0          
O589     O      0.500000000000     0.633090000000     0.571950000000     0          
O590     O      0.500000000000     0.133090000000     0.071950000000     0          
O591     O      0.000000000000     0.633090000000     0.071950000000     0          
O592     O      0.000000000000     0.133090000000     0.571950000000     0          
O593     O      0.500000000000     0.633090000000     0.428050000000     0          
O594     O      0.500000000000     0.133090000000     0.928050000000     0          
O595     O      0.000000000000     0.633090000000     0.928050000000     0          
O596     O      0.000000000000     0.133090000000     0.428050000000     0          
O597     O      0.500000000000     0.366910000000     0.428050000000     0          
O598     O      0.500000000000     0.866910000000     0.928050000000     0          
O599     O      0.000000000000     0.366910000000     0.928050000000     0          
O600     O      0.000000000000     0.866910000000     0.428050000000     0          
O601     O      0.366910000000     0.428050000000     0.500000000000     0          
O602     O      0.366910000000     0.928050000000     0.000000000000     0          
O603     O      0.866910000000     0.428050000000     0.000000000000     0          
O604     O      0.866910000000     0.928050000000     0.500000000000     0          
O605     O      0.633090000000     0.428050000000     0.500000000000     0          
O606     O      0.633090000000     0.928050000000     0.000000000000     0          
O607     O      0.133090000000     0.428050000000     0.000000000000     0          
O608     O      0.133090000000     0.928050000000     0.500000000000     0          
O609     O      0.633090000000     0.571950000000     0.500000000000     0          
O610     O      0.633090000000     0.071950000000     0.000000000000     0          
O611     O      0.133090000000     0.571950000000     0.000000000000     0          
O612     O      0.133090000000     0.071950000000     0.500000000000     0          
O613     O      0.366910000000     0.571950000000     0.500000000000     0          
O614     O      0.366910000000     0.071950000000     0.000000000000     0          
O615     O      0.866910000000     0.571950000000     0.000000000000     0          
O616     O      0.866910000000     0.071950000000     0.500000000000     0          
O617     O      0.428050000000     0.500000000000     0.633090000000     0          
O618     O      0.428050000000     0.000000000000     0.133090000000     0          
O619     O      0.928050000000     0.500000000000     0.133090000000     0          
O620     O      0.928050000000     0.000000000000     0.633090000000     0          
O621     O      0.428050000000     0.500000000000     0.366910000000     0          
O622     O      0.428050000000     0.000000000000     0.866910000000     0          
O623     O      0.928050000000     0.500000000000     0.866910000000     0          
O624     O      0.928050000000     0.000000000000     0.366910000000     0          
O625     O      0.571950000000     0.500000000000     0.366910000000     0          
O626     O      0.571950000000     0.000000000000     0.866910000000     0          
O627     O      0.071950000000     0.500000000000     0.866910000000     0          
O628     O      0.071950000000     0.000000000000     0.366910000000     0          
O629     O      0.571950000000     0.500000000000     0.633090000000     0          
O630     O      0.571950000000     0.000000000000     0.133090000000     0          
O631     O      0.071950000000     0.500000000000     0.133090000000     0          
O632     O      0.071950000000     0.000000000000     0.633090000000     0          
C633     C      0.382490000000     0.500000000000     0.382490000000     0          
C634     C      0.343720000000     0.500000000000     0.343720000000     0          
C635     C      0.269540000000     0.500000000000     0.269540000000     0          
C636     C      0.382490000000     0.000000000000     0.882490000000     0          
C637     C      0.343720000000     0.000000000000     0.843720000000     0          
C638     C      0.269540000000     0.000000000000     0.769540000000     0          
C639     C      0.882490000000     0.500000000000     0.882490000000     0          
C640     C      0.843720000000     0.500000000000     0.843720000000     0          
C641     C      0.769540000000     0.500000000000     0.769540000000     0          
C642     C      0.882490000000     0.000000000000     0.382490000000     0          
C643     C      0.843720000000     0.000000000000     0.343720000000     0          
C644     C      0.769540000000     0.000000000000     0.269540000000     0          
C645     C      0.617510000000     0.500000000000     0.382490000000     0          
C646     C      0.656280000000     0.500000000000     0.343720000000     0          
C647     C      0.730460000000     0.500000000000     0.269540000000     0          
C648     C      0.617510000000     0.000000000000     0.882490000000     0          
C649     C      0.656280000000     0.000000000000     0.843720000000     0          
C650     C      0.730460000000     0.000000000000     0.769540000000     0          
C651     C      0.117510000000     0.500000000000     0.882490000000     0          
C652     C      0.156280000000     0.500000000000     0.843720000000     0          
C653     C      0.230460000000     0.500000000000     0.769540000000     0          
C654     C      0.117510000000     0.000000000000     0.382490000000     0          
C655     C      0.156280000000     0.000000000000     0.343720000000     0          
C656     C      0.230460000000     0.000000000000     0.269540000000     0          
C657     C      0.617510000000     0.500000000000     0.617510000000     0          
C658     C      0.656280000000     0.500000000000     0.656280000000     0          
C659     C      0.730460000000     0.500000000000     0.730460000000     0          
C660     C      0.617510000000     0.000000000000     0.117510000000     0          
C661     C      0.656280000000     0.000000000000     0.156280000000     0          
C662     C      0.730460000000     0.000000000000     0.230460000000     0          
C663     C      0.117510000000     0.500000000000     0.117510000000     0          
C664     C      0.156280000000     0.500000000000     0.156280000000     0          
C665     C      0.230460000000     0.500000000000     0.230460000000     0          
C666     C      0.117510000000     0.000000000000     0.617510000000     0          
C667     C      0.156280000000     0.000000000000     0.656280000000     0          
C668     C      0.230460000000     0.000000000000     0.730460000000     0          
C669     C      0.382490000000     0.500000000000     0.617510000000     0          
C670     C      0.343720000000     0.500000000000     0.656280000000     0          
C671     C      0.269540000000     0.500000000000     0.730460000000     0          
C672     C      0.382490000000     0.000000000000     0.117510000000     0          
C673     C      0.343720000000     0.000000000000     0.156280000000     0          
C674     C      0.269540000000     0.000000000000     0.230460000000     0          
C675     C      0.882490000000     0.500000000000     0.117510000000     0          
C676     C      0.843720000000     0.500000000000     0.156280000000     0          
C677     C      0.769540000000     0.500000000000     0.230460000000     0          
C678     C      0.882490000000     0.000000000000     0.617510000000     0          
C679     C      0.843720000000     0.000000000000     0.656280000000     0          
C680     C      0.769540000000     0.000000000000     0.730460000000     0          
C681     C      0.382490000000     0.382490000000     0.500000000000     0          
C682     C      0.343720000000     0.343720000000     0.500000000000     0          
C683     C      0.269540000000     0.269540000000     0.500000000000     0          
C684     C      0.382490000000     0.882490000000     0.000000000000     0          
C685     C      0.343720000000     0.843720000000     0.000000000000     0          
C686     C      0.269540000000     0.769540000000     0.000000000000     0          
C687     C      0.882490000000     0.382490000000     0.000000000000     0          
C688     C      0.843720000000     0.343720000000     0.000000000000     0          
C689     C      0.769540000000     0.269540000000     0.000000000000     0          
C690     C      0.882490000000     0.882490000000     0.500000000000     0          
C691     C      0.843720000000     0.843720000000     0.500000000000     0          
C692     C      0.769540000000     0.769540000000     0.500000000000     0          
C693     C      0.382490000000     0.617510000000     0.500000000000     0          
C694     C      0.343720000000     0.656280000000     0.500000000000     0          
C695     C      0.269540000000     0.730460000000     0.500000000000     0          
C696     C      0.382490000000     0.117510000000     0.000000000000     0          
C697     C      0.343720000000     0.156280000000     0.000000000000     0          
C698     C      0.269540000000     0.230460000000     0.000000000000     0          
C699     C      0.882490000000     0.617510000000     0.000000000000     0          
C700     C      0.843720000000     0.656280000000     0.000000000000     0          
C701     C      0.769540000000     0.730460000000     0.000000000000     0          
C702     C      0.882490000000     0.117510000000     0.500000000000     0          
C703     C      0.843720000000     0.156280000000     0.500000000000     0          
C704     C      0.769540000000     0.230460000000     0.500000000000     0          
C705     C      0.617510000000     0.617510000000     0.500000000000     0          
C706     C      0.656280000000     0.656280000000     0.500000000000     0          
C707     C      0.730460000000     0.730460000000     0.500000000000     0          
C708     C      0.617510000000     0.117510000000     0.000000000000     0          
C709     C      0.656280000000     0.156280000000     0.000000000000     0          
C710     C      0.730460000000     0.230460000000     0.000000000000     0          
C711     C      0.117510000000     0.617510000000     0.000000000000     0          
C712     C      0.156280000000     0.656280000000     0.000000000000     0          
C713     C      0.230460000000     0.730460000000     0.000000000000     0          
C714     C      0.117510000000     0.117510000000     0.500000000000     0          
C715     C      0.156280000000     0.156280000000     0.500000000000     0          
C716     C      0.230460000000     0.230460000000     0.500000000000     0          
C717     C      0.617510000000     0.382490000000     0.500000000000     0          
C718     C      0.656280000000     0.343720000000     0.500000000000     0          
C719     C      0.730460000000     0.269540000000     0.500000000000     0          
C720     C      0.617510000000     0.882490000000     0.000000000000     0          
C721     C      0.656280000000     0.843720000000     0.000000000000     0          
C722     C      0.730460000000     0.769540000000     0.000000000000     0          
C723     C      0.117510000000     0.382490000000     0.000000000000     0          
C724     C      0.156280000000     0.343720000000     0.000000000000     0          
C725     C      0.230460000000     0.269540000000     0.000000000000     0          
C726     C      0.117510000000     0.882490000000     0.500000000000     0          
C727     C      0.156280000000     0.843720000000     0.500000000000     0          
C728     C      0.230460000000     0.769540000000     0.500000000000     0          
C729     C      0.500000000000     0.382490000000     0.382490000000     0          
C730     C      0.500000000000     0.343720000000     0.343720000000     0          
C731     C      0.500000000000     0.269540000000     0.269540000000     0          
C732     C      0.500000000000     0.882490000000     0.882490000000     0          
C733     C      0.500000000000     0.843720000000     0.843720000000     0          
C734     C      0.500000000000     0.769540000000     0.769540000000     0          
C735     C      0.000000000000     0.382490000000     0.882490000000     0          
C736     C      0.000000000000     0.343720000000     0.843720000000     0          
C737     C      0.000000000000     0.269540000000     0.769540000000     0          
C738     C      0.000000000000     0.882490000000     0.382490000000     0          
C739     C      0.000000000000     0.843720000000     0.343720000000     0          
C740     C      0.000000000000     0.769540000000     0.269540000000     0          
C741     C      0.500000000000     0.382490000000     0.617510000000     0          
C742     C      0.500000000000     0.343720000000     0.656280000000     0          
C743     C      0.500000000000     0.269540000000     0.730460000000     0          
C744     C      0.500000000000     0.882490000000     0.117510000000     0          
C745     C      0.500000000000     0.843720000000     0.156280000000     0          
C746     C      0.500000000000     0.769540000000     0.230460000000     0          
C747     C      0.000000000000     0.382490000000     0.117510000000     0          
C748     C      0.000000000000     0.343720000000     0.156280000000     0          
C749     C      0.000000000000     0.269540000000     0.230460000000     0          
C750     C      0.000000000000     0.882490000000     0.617510000000     0          
C751     C      0.000000000000     0.843720000000     0.656280000000     0          
C752     C      0.000000000000     0.769540000000     0.730460000000     0          
C753     C      0.500000000000     0.617510000000     0.617510000000     0          
C754     C      0.500000000000     0.656280000000     0.656280000000     0          
C755     C      0.500000000000     0.730460000000     0.730460000000     0          
C756     C      0.500000000000     0.117510000000     0.117510000000     0          
C757     C      0.500000000000     0.156280000000     0.156280000000     0          
C758     C      0.500000000000     0.230460000000     0.230460000000     0          
C759     C      0.000000000000     0.617510000000     0.117510000000     0          
C760     C      0.000000000000     0.656280000000     0.156280000000     0          
C761     C      0.000000000000     0.730460000000     0.230460000000     0          
C762     C      0.000000000000     0.117510000000     0.617510000000     0          
C763     C      0.000000000000     0.156280000000     0.656280000000     0          
C764     C      0.000000000000     0.230460000000     0.730460000000     0          
C765     C      0.500000000000     0.617510000000     0.382490000000     0          
C766     C      0.500000000000     0.656280000000     0.343720000000     0          
C767     C      0.500000000000     0.730460000000     0.269540000000     0          
C768     C      0.500000000000     0.117510000000     0.882490000000     0          
C769     C      0.500000000000     0.156280000000     0.843720000000     0          
C770     C      0.500000000000     0.230460000000     0.769540000000     0          
C771     C      0.000000000000     0.617510000000     0.882490000000     0          
C772     C      0.000000000000     0.656280000000     0.843720000000     0          
C773     C      0.000000000000     0.730460000000     0.769540000000     0          
C774     C      0.000000000000     0.117510000000     0.382490000000     0          
C775     C      0.000000000000     0.156280000000     0.343720000000     0          
C776     C      0.000000000000     0.230460000000     0.269540000000     0          


