data_ISENIF

_audit_creation_method RASPA-1.0
_audit_creation_date 2020-11-2
_audit_author_name 'Rocio Bueno-Perez'

_cell_length_a    26.7863
_cell_length_b    26.7863
_cell_length_c    26.7863
_cell_angle_alpha 90
_cell_angle_beta  90
_cell_angle_gamma 90
_cell_volume      19219.3

_symmetry_cell_setting          triclinic
_symmetry_space_group_name_Hall 'P 1'
_symmetry_space_group_name_H-M  'P 1'
_symmetry_Int_Tables_number     1

_symmetry_equiv_pos_as_xyz 'x,y,z'

loop_
_atom_site_label
_atom_site_type_symbol
_atom_site_fract_x
_atom_site_fract_y
_atom_site_fract_z
_atom_site_charge
C1       C      0.294000000000     0.355400000000     0.492200000000     0          
C2       C      0.255800000000     0.320400000000     0.491900000000     0          
H3       H      0.222000000000     0.329700000000     0.486500000000     0          
H4       H      0.285200000000     0.389700000000     0.486600000000     0          
C5       C      0.794000000000     0.855400000000     0.492200000000     0          
C6       C      0.755800000000     0.820400000000     0.491900000000     0          
H7       H      0.722000000000     0.829700000000     0.486500000000     0          
H8       H      0.785200000000     0.889700000000     0.486600000000     0          
C9       C      0.706000000000     0.644600000000     0.492200000000     0          
C10      C      0.744200000000     0.679600000000     0.491900000000     0          
H11      H      0.778000000000     0.670300000000     0.486500000000     0          
Cl12     Cl     0.723900000000     0.582000000000     0.481900000000     0          
C13      C      0.206000000000     0.144600000000     0.492200000000     0          
C14      C      0.244200000000     0.179600000000     0.491900000000     0          
H15      H      0.278000000000     0.170300000000     0.486500000000     0          
Cl16     Cl     0.223900000000     0.082000000000     0.481900000000     0          
C17      C      0.706000000000     0.355400000000     0.507800000000     0          
C18      C      0.744200000000     0.320400000000     0.508100000000     0          
H19      H      0.778000000000     0.329700000000     0.513500000000     0          
Cl20     Cl     0.723900000000     0.418000000000     0.518100000000     0          
C21      C      0.706000000000     0.855400000000     0.007800000000     0          
C22      C      0.744200000000     0.820400000000     0.008100000000     0          
H23      H      0.778000000000     0.829700000000     0.013500000000     0          
H24      H      0.714800000000     0.889700000000     0.013400000000     0          
C25      C      0.206000000000     0.355400000000     0.007800000000     0          
C26      C      0.244200000000     0.320400000000     0.008100000000     0          
H27      H      0.278000000000     0.329700000000     0.013500000000     0          
H28      H      0.214800000000     0.389700000000     0.013400000000     0          
C29      C      0.206000000000     0.855400000000     0.507800000000     0          
C30      C      0.244200000000     0.820400000000     0.508100000000     0          
H31      H      0.278000000000     0.829700000000     0.513500000000     0          
Cl32     Cl     0.223900000000     0.918000000000     0.518100000000     0          
C33      C      0.294000000000     0.644600000000     0.507800000000     0          
C34      C      0.255800000000     0.679600000000     0.508100000000     0          
H35      H      0.222000000000     0.670300000000     0.513500000000     0          
H36      H      0.285200000000     0.610300000000     0.513400000000     0          
C37      C      0.294000000000     0.144600000000     0.007800000000     0          
C38      C      0.255800000000     0.179600000000     0.008100000000     0          
H39      H      0.222000000000     0.170300000000     0.013500000000     0          
H40      H      0.285200000000     0.110300000000     0.013400000000     0          
C41      C      0.794000000000     0.644600000000     0.007800000000     0          
C42      C      0.755800000000     0.679600000000     0.008100000000     0          
H43      H      0.722000000000     0.670300000000     0.013500000000     0          
H44      H      0.785200000000     0.610300000000     0.013400000000     0          
C45      C      0.794000000000     0.144600000000     0.507800000000     0          
C46      C      0.755800000000     0.179600000000     0.508100000000     0          
H47      H      0.722000000000     0.170300000000     0.513500000000     0          
H48      H      0.785200000000     0.110300000000     0.513400000000     0          
C49      C      0.492200000000     0.294000000000     0.355400000000     0          
C50      C      0.491900000000     0.255800000000     0.320400000000     0          
H51      H      0.486500000000     0.222000000000     0.329700000000     0          
H52      H      0.486600000000     0.285200000000     0.389700000000     0          
C53      C      0.492200000000     0.794000000000     0.855400000000     0          
C54      C      0.491900000000     0.755800000000     0.820400000000     0          
H55      H      0.486500000000     0.722000000000     0.829700000000     0          
H56      H      0.486600000000     0.785200000000     0.889700000000     0          
C57      C      0.992200000000     0.294000000000     0.855400000000     0          
C58      C      0.991900000000     0.255800000000     0.820400000000     0          
H59      H      0.986500000000     0.222000000000     0.829700000000     0          
H60      H      0.986600000000     0.285200000000     0.889700000000     0          
C61      C      0.992200000000     0.794000000000     0.355400000000     0          
C62      C      0.991900000000     0.755800000000     0.320400000000     0          
H63      H      0.986500000000     0.722000000000     0.329700000000     0          
Cl64     Cl     0.981900000000     0.776100000000     0.418000000000     0          
C65      C      0.492200000000     0.706000000000     0.644600000000     0          
C66      C      0.491900000000     0.744200000000     0.679600000000     0          
H67      H      0.486500000000     0.778000000000     0.670300000000     0          
Cl68     Cl     0.481900000000     0.723900000000     0.582000000000     0          
C69      C      0.492200000000     0.206000000000     0.144600000000     0          
C70      C      0.491900000000     0.244200000000     0.179600000000     0          
H71      H      0.486500000000     0.278000000000     0.170300000000     0          
Cl72     Cl     0.481900000000     0.223900000000     0.082000000000     0          
C73      C      0.992200000000     0.706000000000     0.144600000000     0          
C74      C      0.991900000000     0.744200000000     0.179600000000     0          
H75      H      0.986500000000     0.778000000000     0.170300000000     0          
H76      H      0.986600000000     0.714800000000     0.110300000000     0          
C77      C      0.992200000000     0.206000000000     0.644600000000     0          
C78      C      0.991900000000     0.244200000000     0.679600000000     0          
H79      H      0.986500000000     0.278000000000     0.670300000000     0          
Cl80     Cl     0.981900000000     0.223900000000     0.582000000000     0          
C81      C      0.507800000000     0.706000000000     0.355400000000     0          
C82      C      0.508100000000     0.744200000000     0.320400000000     0          
H83      H      0.513500000000     0.778000000000     0.329700000000     0          
Cl84     Cl     0.518100000000     0.723900000000     0.418000000000     0          
C85      C      0.507800000000     0.206000000000     0.855400000000     0          
C86      C      0.508100000000     0.244200000000     0.820400000000     0          
H87      H      0.513500000000     0.278000000000     0.829700000000     0          
Cl88     Cl     0.518100000000     0.223900000000     0.918000000000     0          
C89      C      0.007800000000     0.706000000000     0.855400000000     0          
C90      C      0.008100000000     0.744200000000     0.820400000000     0          
H91      H      0.013500000000     0.778000000000     0.829700000000     0          
H92      H      0.013400000000     0.714800000000     0.889700000000     0          
C93      C      0.007800000000     0.206000000000     0.355400000000     0          
C94      C      0.008100000000     0.244200000000     0.320400000000     0          
H95      H      0.013500000000     0.278000000000     0.329700000000     0          
H96      H      0.013400000000     0.214800000000     0.389700000000     0          
C97      C      0.507800000000     0.294000000000     0.644600000000     0          
C98      C      0.508100000000     0.255800000000     0.679600000000     0          
H99      H      0.513500000000     0.222000000000     0.670300000000     0          
H100     H      0.513400000000     0.285200000000     0.610300000000     0          
C101     C      0.507800000000     0.794000000000     0.144600000000     0          
C102     C      0.508100000000     0.755800000000     0.179600000000     0          
H103     H      0.513500000000     0.722000000000     0.170300000000     0          
H104     H      0.513400000000     0.785200000000     0.110300000000     0          
C105     C      0.007800000000     0.294000000000     0.144600000000     0          
C106     C      0.008100000000     0.255800000000     0.179600000000     0          
H107     H      0.013500000000     0.222000000000     0.170300000000     0          
H108     H      0.013400000000     0.285200000000     0.110300000000     0          
C109     C      0.007800000000     0.794000000000     0.644600000000     0          
C110     C      0.008100000000     0.755800000000     0.679600000000     0          
H111     H      0.013500000000     0.722000000000     0.670300000000     0          
H112     H      0.013400000000     0.785200000000     0.610300000000     0          
C113     C      0.355400000000     0.492200000000     0.294000000000     0          
C114     C      0.320400000000     0.491900000000     0.255800000000     0          
H115     H      0.329700000000     0.486500000000     0.222000000000     0          
Cl116    Cl     0.418000000000     0.481900000000     0.276100000000     0          
C117     C      0.855400000000     0.492200000000     0.794000000000     0          
C118     C      0.820400000000     0.491900000000     0.755800000000     0          
H119     H      0.829700000000     0.486500000000     0.722000000000     0          
Cl120    Cl     0.918000000000     0.481900000000     0.776100000000     0          
C121     C      0.855400000000     0.992200000000     0.294000000000     0          
C122     C      0.820400000000     0.991900000000     0.255800000000     0          
H123     H      0.829700000000     0.986500000000     0.222000000000     0          
H124     H      0.889700000000     0.986600000000     0.285200000000     0          
C125     C      0.644600000000     0.492200000000     0.706000000000     0          
C126     C      0.679600000000     0.491900000000     0.744200000000     0          
H127     H      0.670300000000     0.486500000000     0.778000000000     0          
H128     H      0.610300000000     0.486600000000     0.714800000000     0          
C129     C      0.644600000000     0.992200000000     0.206000000000     0          
C130     C      0.679600000000     0.991900000000     0.244200000000     0          
H131     H      0.670300000000     0.986500000000     0.278000000000     0          
H132     H      0.610300000000     0.986600000000     0.214800000000     0          
C133     C      0.144600000000     0.492200000000     0.206000000000     0          
C134     C      0.179600000000     0.491900000000     0.244200000000     0          
H135     H      0.170300000000     0.486500000000     0.278000000000     0          
H136     H      0.110300000000     0.486600000000     0.214800000000     0          
C137     C      0.355400000000     0.507800000000     0.706000000000     0          
C138     C      0.320400000000     0.508100000000     0.744200000000     0          
H139     H      0.329700000000     0.513500000000     0.778000000000     0          
Cl140    Cl     0.418000000000     0.518100000000     0.723900000000     0          
C141     C      0.855400000000     0.507800000000     0.206000000000     0          
C142     C      0.820400000000     0.508100000000     0.244200000000     0          
H143     H      0.829700000000     0.513500000000     0.278000000000     0          
H144     H      0.889700000000     0.513400000000     0.214800000000     0          
C145     C      0.855400000000     0.007800000000     0.706000000000     0          
C146     C      0.820400000000     0.008100000000     0.744200000000     0          
H147     H      0.829700000000     0.013500000000     0.778000000000     0          
H148     H      0.889700000000     0.013400000000     0.714800000000     0          
C149     C      0.644600000000     0.507800000000     0.294000000000     0          
C150     C      0.679600000000     0.508100000000     0.255800000000     0          
H151     H      0.670300000000     0.513500000000     0.222000000000     0          
H152     H      0.610300000000     0.513400000000     0.285200000000     0          
C153     C      0.644600000000     0.007800000000     0.794000000000     0          
C154     C      0.679600000000     0.008100000000     0.755800000000     0          
H155     H      0.670300000000     0.013500000000     0.722000000000     0          
H156     H      0.610300000000     0.013400000000     0.785200000000     0          
C157     C      0.144600000000     0.507800000000     0.794000000000     0          
C158     C      0.179600000000     0.508100000000     0.755800000000     0          
H159     H      0.170300000000     0.513500000000     0.722000000000     0          
H160     H      0.110300000000     0.513400000000     0.785200000000     0          
C161     C      0.355400000000     0.294000000000     0.507800000000     0          
C162     C      0.320400000000     0.255800000000     0.508100000000     0          
H163     H      0.329700000000     0.222000000000     0.513500000000     0          
H164     H      0.389700000000     0.285200000000     0.513400000000     0          
C165     C      0.855400000000     0.794000000000     0.507800000000     0          
C166     C      0.820400000000     0.755800000000     0.508100000000     0          
H167     H      0.829700000000     0.722000000000     0.513500000000     0          
H168     H      0.889700000000     0.785200000000     0.513400000000     0          
C169     C      0.644600000000     0.706000000000     0.507800000000     0          
C170     C      0.679600000000     0.744200000000     0.508100000000     0          
H171     H      0.670300000000     0.778000000000     0.513500000000     0          
H172     H      0.610300000000     0.714800000000     0.513400000000     0          
C173     C      0.144600000000     0.206000000000     0.507800000000     0          
C174     C      0.179600000000     0.244200000000     0.508100000000     0          
H175     H      0.170300000000     0.278000000000     0.513500000000     0          
H176     H      0.110300000000     0.214800000000     0.513400000000     0          
C177     C      0.355400000000     0.706000000000     0.492200000000     0          
C178     C      0.320400000000     0.744200000000     0.491900000000     0          
H179     H      0.329700000000     0.778000000000     0.486500000000     0          
H180     H      0.389700000000     0.714800000000     0.486600000000     0          
C181     C      0.355400000000     0.206000000000     0.992200000000     0          
C182     C      0.320400000000     0.244200000000     0.991900000000     0          
H183     H      0.329700000000     0.278000000000     0.986500000000     0          
Cl184    Cl     0.418000000000     0.223900000000     0.981900000000     0          
C185     C      0.855400000000     0.706000000000     0.992200000000     0          
C186     C      0.820400000000     0.744200000000     0.991900000000     0          
H187     H      0.829700000000     0.778000000000     0.986500000000     0          
Cl188    Cl     0.918000000000     0.723900000000     0.981900000000     0          
C189     C      0.855400000000     0.206000000000     0.492200000000     0          
C190     C      0.820400000000     0.244200000000     0.491900000000     0          
H191     H      0.829700000000     0.278000000000     0.486500000000     0          
H192     H      0.889700000000     0.214800000000     0.486600000000     0          
C193     C      0.644600000000     0.294000000000     0.492200000000     0          
C194     C      0.679600000000     0.255800000000     0.491900000000     0          
H195     H      0.670300000000     0.222000000000     0.486500000000     0          
H196     H      0.610300000000     0.285200000000     0.486600000000     0          
C197     C      0.644600000000     0.794000000000     0.992200000000     0          
C198     C      0.679600000000     0.755800000000     0.991900000000     0          
H199     H      0.670300000000     0.722000000000     0.986500000000     0          
H200     H      0.610300000000     0.785200000000     0.986600000000     0          
C201     C      0.144600000000     0.294000000000     0.992200000000     0          
C202     C      0.179600000000     0.255800000000     0.991900000000     0          
H203     H      0.170300000000     0.222000000000     0.986500000000     0          
H204     H      0.110300000000     0.285200000000     0.986600000000     0          
C205     C      0.144600000000     0.794000000000     0.492200000000     0          
C206     C      0.179600000000     0.755800000000     0.491900000000     0          
H207     H      0.170300000000     0.722000000000     0.486500000000     0          
H208     H      0.110300000000     0.785200000000     0.486600000000     0          
C209     C      0.294000000000     0.492200000000     0.644600000000     0          
C210     C      0.255800000000     0.491900000000     0.679600000000     0          
H211     H      0.222000000000     0.486500000000     0.670300000000     0          
H212     H      0.285200000000     0.486600000000     0.610300000000     0          
C213     C      0.794000000000     0.492200000000     0.144600000000     0          
C214     C      0.755800000000     0.491900000000     0.179600000000     0          
H215     H      0.722000000000     0.486500000000     0.170300000000     0          
H216     H      0.785200000000     0.486600000000     0.110300000000     0          
C217     C      0.794000000000     0.992200000000     0.644600000000     0          
C218     C      0.755800000000     0.991900000000     0.679600000000     0          
H219     H      0.722000000000     0.986500000000     0.670300000000     0          
Cl220    Cl     0.776100000000     0.981900000000     0.582000000000     0          
C221     C      0.706000000000     0.492200000000     0.355400000000     0          
C222     C      0.744200000000     0.491900000000     0.320400000000     0          
H223     H      0.778000000000     0.486500000000     0.329700000000     0          
Cl224    Cl     0.723900000000     0.481900000000     0.418000000000     0          
C225     C      0.706000000000     0.992200000000     0.855400000000     0          
C226     C      0.744200000000     0.991900000000     0.820400000000     0          
H227     H      0.778000000000     0.986500000000     0.829700000000     0          
H228     H      0.714800000000     0.986600000000     0.889700000000     0          
C229     C      0.206000000000     0.492200000000     0.855400000000     0          
C230     C      0.244200000000     0.491900000000     0.820400000000     0          
H231     H      0.278000000000     0.486500000000     0.829700000000     0          
H232     H      0.214800000000     0.486600000000     0.889700000000     0          
C233     C      0.706000000000     0.507800000000     0.644600000000     0          
C234     C      0.744200000000     0.508100000000     0.679600000000     0          
H235     H      0.778000000000     0.513500000000     0.670300000000     0          
H236     H      0.714800000000     0.513400000000     0.610300000000     0          
C237     C      0.706000000000     0.007800000000     0.144600000000     0          
C238     C      0.744200000000     0.008100000000     0.179600000000     0          
H239     H      0.778000000000     0.013500000000     0.170300000000     0          
Cl240    Cl     0.723900000000     0.018100000000     0.082000000000     0          
C241     C      0.206000000000     0.507800000000     0.144600000000     0          
C242     C      0.244200000000     0.508100000000     0.179600000000     0          
H243     H      0.278000000000     0.513500000000     0.170300000000     0          
H244     H      0.214800000000     0.513400000000     0.110300000000     0          
C245     C      0.294000000000     0.507800000000     0.355400000000     0          
C246     C      0.255800000000     0.508100000000     0.320400000000     0          
H247     H      0.222000000000     0.513500000000     0.329700000000     0          
H248     H      0.285200000000     0.513400000000     0.389700000000     0          
C249     C      0.794000000000     0.507800000000     0.855400000000     0          
C250     C      0.755800000000     0.508100000000     0.820400000000     0          
H251     H      0.722000000000     0.513500000000     0.829700000000     0          
H252     H      0.785200000000     0.513400000000     0.889700000000     0          
C253     C      0.794000000000     0.007800000000     0.355400000000     0          
C254     C      0.755800000000     0.008100000000     0.320400000000     0          
H255     H      0.722000000000     0.013500000000     0.329700000000     0          
H256     H      0.785200000000     0.013400000000     0.389700000000     0          
C257     C      0.492200000000     0.355400000000     0.706000000000     0          
C258     C      0.491900000000     0.320400000000     0.744200000000     0          
H259     H      0.486500000000     0.329700000000     0.778000000000     0          
H260     H      0.486600000000     0.389700000000     0.714800000000     0          
C261     C      0.492200000000     0.855400000000     0.206000000000     0          
C262     C      0.491900000000     0.820400000000     0.244200000000     0          
H263     H      0.486500000000     0.829700000000     0.278000000000     0          
H264     H      0.486600000000     0.889700000000     0.214800000000     0          
C265     C      0.992200000000     0.355400000000     0.206000000000     0          
C266     C      0.991900000000     0.320400000000     0.244200000000     0          
H267     H      0.986500000000     0.329700000000     0.278000000000     0          
Cl268    Cl     0.981900000000     0.418000000000     0.223900000000     0          
C269     C      0.992200000000     0.855400000000     0.706000000000     0          
C270     C      0.991900000000     0.820400000000     0.744200000000     0          
H271     H      0.986500000000     0.829700000000     0.778000000000     0          
Cl272    Cl     0.981900000000     0.918000000000     0.723900000000     0          
C273     C      0.492200000000     0.644600000000     0.294000000000     0          
C274     C      0.491900000000     0.679600000000     0.255800000000     0          
H275     H      0.486500000000     0.670300000000     0.222000000000     0          
H276     H      0.486600000000     0.610300000000     0.285200000000     0          
C277     C      0.492200000000     0.144600000000     0.794000000000     0          
C278     C      0.491900000000     0.179600000000     0.755800000000     0          
H279     H      0.486500000000     0.170300000000     0.722000000000     0          
H280     H      0.486600000000     0.110300000000     0.785200000000     0          
C281     C      0.992200000000     0.644600000000     0.794000000000     0          
C282     C      0.991900000000     0.679600000000     0.755800000000     0          
H283     H      0.986500000000     0.670300000000     0.722000000000     0          
H284     H      0.986600000000     0.610300000000     0.785200000000     0          
C285     C      0.992200000000     0.144600000000     0.294000000000     0          
C286     C      0.991900000000     0.179600000000     0.255800000000     0          
H287     H      0.986500000000     0.170300000000     0.222000000000     0          
H288     H      0.986600000000     0.110300000000     0.285200000000     0          
C289     C      0.507800000000     0.355400000000     0.294000000000     0          
C290     C      0.508100000000     0.320400000000     0.255800000000     0          
H291     H      0.513500000000     0.329700000000     0.222000000000     0          
H292     H      0.513400000000     0.389700000000     0.285200000000     0          
C293     C      0.507800000000     0.855400000000     0.794000000000     0          
C294     C      0.508100000000     0.820400000000     0.755800000000     0          
H295     H      0.513500000000     0.829700000000     0.722000000000     0          
H296     H      0.513400000000     0.889700000000     0.785200000000     0          
C297     C      0.007800000000     0.355400000000     0.794000000000     0          
C298     C      0.008100000000     0.320400000000     0.755800000000     0          
H299     H      0.013500000000     0.329700000000     0.722000000000     0          
H300     H      0.013400000000     0.389700000000     0.785200000000     0          
C301     C      0.007800000000     0.855400000000     0.294000000000     0          
C302     C      0.008100000000     0.820400000000     0.255800000000     0          
H303     H      0.013500000000     0.829700000000     0.222000000000     0          
H304     H      0.013400000000     0.889700000000     0.285200000000     0          
C305     C      0.507800000000     0.644600000000     0.706000000000     0          
C306     C      0.508100000000     0.679600000000     0.744200000000     0          
H307     H      0.513500000000     0.670300000000     0.778000000000     0          
H308     H      0.513400000000     0.610300000000     0.714800000000     0          
C309     C      0.507800000000     0.144600000000     0.206000000000     0          
C310     C      0.508100000000     0.179600000000     0.244200000000     0          
H311     H      0.513500000000     0.170300000000     0.278000000000     0          
H312     H      0.513400000000     0.110300000000     0.214800000000     0          
C313     C      0.007800000000     0.644600000000     0.206000000000     0          
C314     C      0.008100000000     0.679600000000     0.244200000000     0          
H315     H      0.013500000000     0.670300000000     0.278000000000     0          
H316     H      0.013400000000     0.610300000000     0.214800000000     0          
C317     C      0.007800000000     0.144600000000     0.706000000000     0          
C318     C      0.008100000000     0.179600000000     0.744200000000     0          
H319     H      0.013500000000     0.170300000000     0.778000000000     0          
H320     H      0.013400000000     0.110300000000     0.714800000000     0          
C321     C      0.706000000000     0.144600000000     0.007800000000     0          
C322     C      0.744200000000     0.179600000000     0.008100000000     0          
H323     H      0.778000000000     0.170300000000     0.013500000000     0          
Cl324    Cl     0.723900000000     0.082000000000     0.018100000000     0          
C325     C      0.206000000000     0.644600000000     0.007800000000     0          
C326     C      0.244200000000     0.679600000000     0.008100000000     0          
H327     H      0.278000000000     0.670300000000     0.013500000000     0          
Cl328    Cl     0.223900000000     0.582000000000     0.018100000000     0          
C329     C      0.294000000000     0.855400000000     0.007800000000     0          
C330     C      0.255800000000     0.820400000000     0.008100000000     0          
H331     H      0.222000000000     0.829700000000     0.013500000000     0          
H332     H      0.285200000000     0.889700000000     0.013400000000     0          
C333     C      0.794000000000     0.355400000000     0.007800000000     0          
C334     C      0.755800000000     0.320400000000     0.008100000000     0          
H335     H      0.722000000000     0.329700000000     0.013500000000     0          
H336     H      0.785200000000     0.389700000000     0.013400000000     0          
C337     C      0.144600000000     0.007800000000     0.706000000000     0          
C338     C      0.179600000000     0.008100000000     0.744200000000     0          
H339     H      0.170300000000     0.013500000000     0.778000000000     0          
H340     H      0.110300000000     0.013400000000     0.714800000000     0          
C341     C      0.355400000000     0.007800000000     0.794000000000     0          
C342     C      0.320400000000     0.008100000000     0.755800000000     0          
H343     H      0.329700000000     0.013500000000     0.722000000000     0          
H344     H      0.389700000000     0.013400000000     0.785200000000     0          
C345     C      0.144600000000     0.992200000000     0.294000000000     0          
C346     C      0.179600000000     0.991900000000     0.255800000000     0          
H347     H      0.170300000000     0.986500000000     0.222000000000     0          
H348     H      0.110300000000     0.986600000000     0.285200000000     0          
C349     C      0.355400000000     0.992200000000     0.206000000000     0          
C350     C      0.320400000000     0.991900000000     0.244200000000     0          
H351     H      0.329700000000     0.986500000000     0.278000000000     0          
Cl352    Cl     0.418000000000     0.981900000000     0.223900000000     0          
C353     C      0.644600000000     0.206000000000     0.992200000000     0          
C354     C      0.679600000000     0.244200000000     0.991900000000     0          
H355     H      0.670300000000     0.278000000000     0.986500000000     0          
H356     H      0.610300000000     0.214800000000     0.986600000000     0          
C357     C      0.144600000000     0.706000000000     0.992200000000     0          
C358     C      0.179600000000     0.744200000000     0.991900000000     0          
H359     H      0.170300000000     0.778000000000     0.986500000000     0          
H360     H      0.110300000000     0.714800000000     0.986600000000     0          
C361     C      0.355400000000     0.794000000000     0.992200000000     0          
C362     C      0.320400000000     0.755800000000     0.991900000000     0          
H363     H      0.329700000000     0.722000000000     0.986500000000     0          
H364     H      0.389700000000     0.785200000000     0.986600000000     0          
C365     C      0.855400000000     0.294000000000     0.992200000000     0          
C366     C      0.820400000000     0.255800000000     0.991900000000     0          
H367     H      0.829700000000     0.222000000000     0.986500000000     0          
H368     H      0.889700000000     0.285200000000     0.986600000000     0          
C369     C      0.206000000000     0.007800000000     0.355400000000     0          
C370     C      0.244200000000     0.008100000000     0.320400000000     0          
H371     H      0.278000000000     0.013500000000     0.329700000000     0          
H372     H      0.214800000000     0.013400000000     0.389700000000     0          
C373     C      0.294000000000     0.007800000000     0.144600000000     0          
C374     C      0.255800000000     0.008100000000     0.179600000000     0          
H375     H      0.222000000000     0.013500000000     0.170300000000     0          
H376     H      0.285200000000     0.013400000000     0.110300000000     0          
C377     C      0.294000000000     0.992200000000     0.855400000000     0          
C378     C      0.255800000000     0.991900000000     0.820400000000     0          
H379     H      0.222000000000     0.986500000000     0.829700000000     0          
H380     H      0.285200000000     0.986600000000     0.889700000000     0          
C381     C      0.206000000000     0.992200000000     0.644600000000     0          
C382     C      0.244200000000     0.991900000000     0.679600000000     0          
H383     H      0.278000000000     0.986500000000     0.670300000000     0          
Cl384    Cl     0.223900000000     0.981900000000     0.582000000000     0          
Zr385    Zr     0.407890000000     0.500000000000     0.500000000000     0          
Zr386    Zr     0.407890000000     0.000000000000     0.000000000000     0          
Zr387    Zr     0.907890000000     0.500000000000     0.000000000000     0          
Zr388    Zr     0.907890000000     0.000000000000     0.500000000000     0          
Zr389    Zr     0.592110000000     0.500000000000     0.500000000000     0          
Zr390    Zr     0.592110000000     0.000000000000     0.000000000000     0          
Zr391    Zr     0.092110000000     0.500000000000     0.000000000000     0          
Zr392    Zr     0.092110000000     0.000000000000     0.500000000000     0          
Zr393    Zr     0.500000000000     0.407890000000     0.500000000000     0          
Zr394    Zr     0.500000000000     0.907890000000     0.000000000000     0          
Zr395    Zr     0.000000000000     0.407890000000     0.000000000000     0          
Zr396    Zr     0.000000000000     0.907890000000     0.500000000000     0          
Zr397    Zr     0.500000000000     0.592110000000     0.500000000000     0          
Zr398    Zr     0.500000000000     0.092110000000     0.000000000000     0          
Zr399    Zr     0.000000000000     0.592110000000     0.000000000000     0          
Zr400    Zr     0.000000000000     0.092110000000     0.500000000000     0          
Zr401    Zr     0.500000000000     0.500000000000     0.407890000000     0          
Zr402    Zr     0.500000000000     0.000000000000     0.907890000000     0          
Zr403    Zr     0.000000000000     0.500000000000     0.907890000000     0          
Zr404    Zr     0.000000000000     0.000000000000     0.407890000000     0          
Zr405    Zr     0.500000000000     0.500000000000     0.592110000000     0          
Zr406    Zr     0.500000000000     0.000000000000     0.092110000000     0          
Zr407    Zr     0.000000000000     0.500000000000     0.092110000000     0          
Zr408    Zr     0.000000000000     0.000000000000     0.592110000000     0          
O409     O      0.460400000000     0.539600000000     0.539600000000     0          
O410     O      0.447200000000     0.552800000000     0.552800000000     0          
O411     O      0.460400000000     0.039600000000     0.039600000000     0          
O412     O      0.447200000000     0.052800000000     0.052800000000     0          
O413     O      0.960400000000     0.539600000000     0.039600000000     0          
O414     O      0.947200000000     0.552800000000     0.052800000000     0          
O415     O      0.960400000000     0.039600000000     0.539600000000     0          
O416     O      0.947200000000     0.052800000000     0.552800000000     0          
O417     O      0.539600000000     0.460400000000     0.539600000000     0          
O418     O      0.552800000000     0.447200000000     0.552800000000     0          
O419     O      0.539600000000     0.960400000000     0.039600000000     0          
O420     O      0.552800000000     0.947200000000     0.052800000000     0          
O421     O      0.039600000000     0.460400000000     0.039600000000     0          
O422     O      0.052800000000     0.447200000000     0.052800000000     0          
O423     O      0.039600000000     0.960400000000     0.539600000000     0          
O424     O      0.052800000000     0.947200000000     0.552800000000     0          
O425     O      0.539600000000     0.539600000000     0.460400000000     0          
O426     O      0.552800000000     0.552800000000     0.447200000000     0          
O427     O      0.539600000000     0.039600000000     0.960400000000     0          
O428     O      0.552800000000     0.052800000000     0.947200000000     0          
O429     O      0.039600000000     0.539600000000     0.960400000000     0          
O430     O      0.052800000000     0.552800000000     0.947200000000     0          
O431     O      0.039600000000     0.039600000000     0.460400000000     0          
O432     O      0.052800000000     0.052800000000     0.447200000000     0          
O433     O      0.460400000000     0.460400000000     0.460400000000     0          
O434     O      0.447200000000     0.447200000000     0.447200000000     0          
O435     O      0.460400000000     0.960400000000     0.960400000000     0          
O436     O      0.447200000000     0.947200000000     0.947200000000     0          
O437     O      0.960400000000     0.460400000000     0.960400000000     0          
O438     O      0.947200000000     0.447200000000     0.947200000000     0          
O439     O      0.960400000000     0.960400000000     0.460400000000     0          
O440     O      0.947200000000     0.947200000000     0.447200000000     0          
O441     O      0.539600000000     0.460400000000     0.460400000000     0          
O442     O      0.552800000000     0.447200000000     0.447200000000     0          
O443     O      0.539600000000     0.960400000000     0.960400000000     0          
O444     O      0.552800000000     0.947200000000     0.947200000000     0          
O445     O      0.039600000000     0.460400000000     0.960400000000     0          
O446     O      0.052800000000     0.447200000000     0.947200000000     0          
O447     O      0.039600000000     0.960400000000     0.460400000000     0          
O448     O      0.052800000000     0.947200000000     0.447200000000     0          
O449     O      0.460400000000     0.539600000000     0.460400000000     0          
O450     O      0.447200000000     0.552800000000     0.447200000000     0          
O451     O      0.460400000000     0.039600000000     0.960400000000     0          
O452     O      0.447200000000     0.052800000000     0.947200000000     0          
O453     O      0.960400000000     0.539600000000     0.960400000000     0          
O454     O      0.947200000000     0.552800000000     0.947200000000     0          
O455     O      0.960400000000     0.039600000000     0.460400000000     0          
O456     O      0.947200000000     0.052800000000     0.447200000000     0          
O457     O      0.539600000000     0.539600000000     0.539600000000     0          
O458     O      0.552800000000     0.552800000000     0.552800000000     0          
O459     O      0.539600000000     0.039600000000     0.039600000000     0          
O460     O      0.552800000000     0.052800000000     0.052800000000     0          
O461     O      0.039600000000     0.539600000000     0.039600000000     0          
O462     O      0.052800000000     0.552800000000     0.052800000000     0          
O463     O      0.039600000000     0.039600000000     0.539600000000     0          
O464     O      0.052800000000     0.052800000000     0.552800000000     0          
O465     O      0.460400000000     0.460400000000     0.539600000000     0          
O466     O      0.447200000000     0.447200000000     0.552800000000     0          
O467     O      0.460400000000     0.960400000000     0.039600000000     0          
O468     O      0.447200000000     0.947200000000     0.052800000000     0          
O469     O      0.960400000000     0.460400000000     0.039600000000     0          
O470     O      0.947200000000     0.447200000000     0.052800000000     0          
O471     O      0.960400000000     0.960400000000     0.539600000000     0          
O472     O      0.947200000000     0.947200000000     0.552800000000     0          
O473     O      0.367230000000     0.427980000000     0.500000000000     0          
O474     O      0.367230000000     0.927980000000     0.000000000000     0          
O475     O      0.867230000000     0.427980000000     0.000000000000     0          
O476     O      0.867230000000     0.927980000000     0.500000000000     0          
O477     O      0.632770000000     0.572020000000     0.500000000000     0          
O478     O      0.632770000000     0.072020000000     0.000000000000     0          
O479     O      0.132770000000     0.572020000000     0.000000000000     0          
O480     O      0.132770000000     0.072020000000     0.500000000000     0          
O481     O      0.632770000000     0.427980000000     0.500000000000     0          
O482     O      0.632770000000     0.927980000000     0.000000000000     0          
O483     O      0.132770000000     0.427980000000     0.000000000000     0          
O484     O      0.132770000000     0.927980000000     0.500000000000     0          
O485     O      0.367230000000     0.572020000000     0.500000000000     0          
O486     O      0.367230000000     0.072020000000     0.000000000000     0          
O487     O      0.867230000000     0.572020000000     0.000000000000     0          
O488     O      0.867230000000     0.072020000000     0.500000000000     0          
O489     O      0.500000000000     0.367230000000     0.427980000000     0          
O490     O      0.500000000000     0.867230000000     0.927980000000     0          
O491     O      0.000000000000     0.367230000000     0.927980000000     0          
O492     O      0.000000000000     0.867230000000     0.427980000000     0          
O493     O      0.500000000000     0.632770000000     0.572020000000     0          
O494     O      0.500000000000     0.132770000000     0.072020000000     0          
O495     O      0.000000000000     0.632770000000     0.072020000000     0          
O496     O      0.000000000000     0.132770000000     0.572020000000     0          
O497     O      0.500000000000     0.632770000000     0.427980000000     0          
O498     O      0.500000000000     0.132770000000     0.927980000000     0          
O499     O      0.000000000000     0.632770000000     0.927980000000     0          
O500     O      0.000000000000     0.132770000000     0.427980000000     0          
O501     O      0.500000000000     0.367230000000     0.572020000000     0          
O502     O      0.500000000000     0.867230000000     0.072020000000     0          
O503     O      0.000000000000     0.367230000000     0.072020000000     0          
O504     O      0.000000000000     0.867230000000     0.572020000000     0          
O505     O      0.427980000000     0.500000000000     0.367230000000     0          
O506     O      0.427980000000     0.000000000000     0.867230000000     0          
O507     O      0.927980000000     0.500000000000     0.867230000000     0          
O508     O      0.927980000000     0.000000000000     0.367230000000     0          
O509     O      0.572020000000     0.500000000000     0.632770000000     0          
O510     O      0.572020000000     0.000000000000     0.132770000000     0          
O511     O      0.072020000000     0.500000000000     0.132770000000     0          
O512     O      0.072020000000     0.000000000000     0.632770000000     0          
O513     O      0.427980000000     0.500000000000     0.632770000000     0          
O514     O      0.427980000000     0.000000000000     0.132770000000     0          
O515     O      0.927980000000     0.500000000000     0.132770000000     0          
O516     O      0.927980000000     0.000000000000     0.632770000000     0          
O517     O      0.572020000000     0.500000000000     0.367230000000     0          
O518     O      0.572020000000     0.000000000000     0.867230000000     0          
O519     O      0.072020000000     0.500000000000     0.867230000000     0          
O520     O      0.072020000000     0.000000000000     0.367230000000     0          
O521     O      0.427980000000     0.367230000000     0.500000000000     0          
O522     O      0.427980000000     0.867230000000     0.000000000000     0          
O523     O      0.927980000000     0.367230000000     0.000000000000     0          
O524     O      0.927980000000     0.867230000000     0.500000000000     0          
O525     O      0.572020000000     0.632770000000     0.500000000000     0          
O526     O      0.572020000000     0.132770000000     0.000000000000     0          
O527     O      0.072020000000     0.632770000000     0.000000000000     0          
O528     O      0.072020000000     0.132770000000     0.500000000000     0          
O529     O      0.427980000000     0.632770000000     0.500000000000     0          
O530     O      0.427980000000     0.132770000000     0.000000000000     0          
O531     O      0.927980000000     0.632770000000     0.000000000000     0          
O532     O      0.927980000000     0.132770000000     0.500000000000     0          
O533     O      0.572020000000     0.367230000000     0.500000000000     0          
O534     O      0.572020000000     0.867230000000     0.000000000000     0          
O535     O      0.072020000000     0.367230000000     0.000000000000     0          
O536     O      0.072020000000     0.867230000000     0.500000000000     0          
O537     O      0.367230000000     0.500000000000     0.572020000000     0          
O538     O      0.367230000000     0.000000000000     0.072020000000     0          
O539     O      0.867230000000     0.500000000000     0.072020000000     0          
O540     O      0.867230000000     0.000000000000     0.572020000000     0          
O541     O      0.632770000000     0.500000000000     0.427980000000     0          
O542     O      0.632770000000     0.000000000000     0.927980000000     0          
O543     O      0.132770000000     0.500000000000     0.927980000000     0          
O544     O      0.132770000000     0.000000000000     0.427980000000     0          
O545     O      0.632770000000     0.500000000000     0.572020000000     0          
O546     O      0.632770000000     0.000000000000     0.072020000000     0          
O547     O      0.132770000000     0.500000000000     0.072020000000     0          
O548     O      0.132770000000     0.000000000000     0.572020000000     0          
O549     O      0.367230000000     0.500000000000     0.427980000000     0          
O550     O      0.367230000000     0.000000000000     0.927980000000     0          
O551     O      0.867230000000     0.500000000000     0.927980000000     0          
O552     O      0.867230000000     0.000000000000     0.427980000000     0          
O553     O      0.500000000000     0.427980000000     0.632770000000     0          
O554     O      0.500000000000     0.927980000000     0.132770000000     0          
O555     O      0.000000000000     0.427980000000     0.132770000000     0          
O556     O      0.000000000000     0.927980000000     0.632770000000     0          
O557     O      0.500000000000     0.572020000000     0.367230000000     0          
O558     O      0.500000000000     0.072020000000     0.867230000000     0          
O559     O      0.000000000000     0.572020000000     0.867230000000     0          
O560     O      0.000000000000     0.072020000000     0.367230000000     0          
O561     O      0.500000000000     0.427980000000     0.367230000000     0          
O562     O      0.500000000000     0.927980000000     0.867230000000     0          
O563     O      0.000000000000     0.427980000000     0.867230000000     0          
O564     O      0.000000000000     0.927980000000     0.367230000000     0          
O565     O      0.500000000000     0.572020000000     0.632770000000     0          
O566     O      0.500000000000     0.072020000000     0.132770000000     0          
O567     O      0.000000000000     0.572020000000     0.132770000000     0          
O568     O      0.000000000000     0.072020000000     0.632770000000     0          
C569     C      0.382550000000     0.382550000000     0.500000000000     0          
C570     C      0.343780000000     0.343780000000     0.500000000000     0          
C571     C      0.269900000000     0.269900000000     0.500000000000     0          
C572     C      0.382550000000     0.882550000000     0.000000000000     0          
C573     C      0.343780000000     0.843780000000     0.000000000000     0          
C574     C      0.269900000000     0.769900000000     0.000000000000     0          
C575     C      0.882550000000     0.382550000000     0.000000000000     0          
C576     C      0.843780000000     0.343780000000     0.000000000000     0          
C577     C      0.769900000000     0.269900000000     0.000000000000     0          
C578     C      0.882550000000     0.882550000000     0.500000000000     0          
C579     C      0.843780000000     0.843780000000     0.500000000000     0          
C580     C      0.769900000000     0.769900000000     0.500000000000     0          
C581     C      0.617450000000     0.617450000000     0.500000000000     0          
C582     C      0.656220000000     0.656220000000     0.500000000000     0          
C583     C      0.730100000000     0.730100000000     0.500000000000     0          
C584     C      0.617450000000     0.117450000000     0.000000000000     0          
C585     C      0.656220000000     0.156220000000     0.000000000000     0          
C586     C      0.730100000000     0.230100000000     0.000000000000     0          
C587     C      0.117450000000     0.617450000000     0.000000000000     0          
C588     C      0.156220000000     0.656220000000     0.000000000000     0          
C589     C      0.230100000000     0.730100000000     0.000000000000     0          
C590     C      0.117450000000     0.117450000000     0.500000000000     0          
C591     C      0.156220000000     0.156220000000     0.500000000000     0          
C592     C      0.230100000000     0.230100000000     0.500000000000     0          
C593     C      0.617450000000     0.382550000000     0.500000000000     0          
C594     C      0.656220000000     0.343780000000     0.500000000000     0          
C595     C      0.730100000000     0.269900000000     0.500000000000     0          
C596     C      0.617450000000     0.882550000000     0.000000000000     0          
C597     C      0.656220000000     0.843780000000     0.000000000000     0          
C598     C      0.730100000000     0.769900000000     0.000000000000     0          
C599     C      0.117450000000     0.382550000000     0.000000000000     0          
C600     C      0.156220000000     0.343780000000     0.000000000000     0          
C601     C      0.230100000000     0.269900000000     0.000000000000     0          
C602     C      0.117450000000     0.882550000000     0.500000000000     0          
C603     C      0.156220000000     0.843780000000     0.500000000000     0          
C604     C      0.230100000000     0.769900000000     0.500000000000     0          
C605     C      0.382550000000     0.617450000000     0.500000000000     0          
C606     C      0.343780000000     0.656220000000     0.500000000000     0          
C607     C      0.269900000000     0.730100000000     0.500000000000     0          
C608     C      0.382550000000     0.117450000000     0.000000000000     0          
C609     C      0.343780000000     0.156220000000     0.000000000000     0          
C610     C      0.269900000000     0.230100000000     0.000000000000     0          
C611     C      0.882550000000     0.617450000000     0.000000000000     0          
C612     C      0.843780000000     0.656220000000     0.000000000000     0          
C613     C      0.769900000000     0.730100000000     0.000000000000     0          
C614     C      0.882550000000     0.117450000000     0.500000000000     0          
C615     C      0.843780000000     0.156220000000     0.500000000000     0          
C616     C      0.769900000000     0.230100000000     0.500000000000     0          
C617     C      0.500000000000     0.382550000000     0.382550000000     0          
C618     C      0.500000000000     0.343780000000     0.343780000000     0          
C619     C      0.500000000000     0.269900000000     0.269900000000     0          
C620     C      0.500000000000     0.882550000000     0.882550000000     0          
C621     C      0.500000000000     0.843780000000     0.843780000000     0          
C622     C      0.500000000000     0.769900000000     0.769900000000     0          
C623     C      0.000000000000     0.382550000000     0.882550000000     0          
C624     C      0.000000000000     0.343780000000     0.843780000000     0          
C625     C      0.000000000000     0.269900000000     0.769900000000     0          
C626     C      0.000000000000     0.882550000000     0.382550000000     0          
C627     C      0.000000000000     0.843780000000     0.343780000000     0          
C628     C      0.000000000000     0.769900000000     0.269900000000     0          
C629     C      0.500000000000     0.617450000000     0.617450000000     0          
C630     C      0.500000000000     0.656220000000     0.656220000000     0          
C631     C      0.500000000000     0.730100000000     0.730100000000     0          
C632     C      0.500000000000     0.117450000000     0.117450000000     0          
C633     C      0.500000000000     0.156220000000     0.156220000000     0          
C634     C      0.500000000000     0.230100000000     0.230100000000     0          
C635     C      0.000000000000     0.617450000000     0.117450000000     0          
C636     C      0.000000000000     0.656220000000     0.156220000000     0          
C637     C      0.000000000000     0.730100000000     0.230100000000     0          
C638     C      0.000000000000     0.117450000000     0.617450000000     0          
C639     C      0.000000000000     0.156220000000     0.656220000000     0          
C640     C      0.000000000000     0.230100000000     0.730100000000     0          
C641     C      0.500000000000     0.617450000000     0.382550000000     0          
C642     C      0.500000000000     0.656220000000     0.343780000000     0          
C643     C      0.500000000000     0.730100000000     0.269900000000     0          
C644     C      0.500000000000     0.117450000000     0.882550000000     0          
C645     C      0.500000000000     0.156220000000     0.843780000000     0          
C646     C      0.500000000000     0.230100000000     0.769900000000     0          
C647     C      0.000000000000     0.617450000000     0.882550000000     0          
C648     C      0.000000000000     0.656220000000     0.843780000000     0          
C649     C      0.000000000000     0.730100000000     0.769900000000     0          
C650     C      0.000000000000     0.117450000000     0.382550000000     0          
C651     C      0.000000000000     0.156220000000     0.343780000000     0          
C652     C      0.000000000000     0.230100000000     0.269900000000     0          
C653     C      0.500000000000     0.382550000000     0.617450000000     0          
C654     C      0.500000000000     0.343780000000     0.656220000000     0          
C655     C      0.500000000000     0.269900000000     0.730100000000     0          
C656     C      0.500000000000     0.882550000000     0.117450000000     0          
C657     C      0.500000000000     0.843780000000     0.156220000000     0          
C658     C      0.500000000000     0.769900000000     0.230100000000     0          
C659     C      0.000000000000     0.382550000000     0.117450000000     0          
C660     C      0.000000000000     0.343780000000     0.156220000000     0          
C661     C      0.000000000000     0.269900000000     0.230100000000     0          
C662     C      0.000000000000     0.882550000000     0.617450000000     0          
C663     C      0.000000000000     0.843780000000     0.656220000000     0          
C664     C      0.000000000000     0.769900000000     0.730100000000     0          
C665     C      0.382550000000     0.500000000000     0.382550000000     0          
C666     C      0.343780000000     0.500000000000     0.343780000000     0          
C667     C      0.269900000000     0.500000000000     0.269900000000     0          
C668     C      0.382550000000     0.000000000000     0.882550000000     0          
C669     C      0.343780000000     0.000000000000     0.843780000000     0          
C670     C      0.269900000000     0.000000000000     0.769900000000     0          
C671     C      0.882550000000     0.500000000000     0.882550000000     0          
C672     C      0.843780000000     0.500000000000     0.843780000000     0          
C673     C      0.769900000000     0.500000000000     0.769900000000     0          
C674     C      0.882550000000     0.000000000000     0.382550000000     0          
C675     C      0.843780000000     0.000000000000     0.343780000000     0          
C676     C      0.769900000000     0.000000000000     0.269900000000     0          
C677     C      0.617450000000     0.500000000000     0.617450000000     0          
C678     C      0.656220000000     0.500000000000     0.656220000000     0          
C679     C      0.730100000000     0.500000000000     0.730100000000     0          
C680     C      0.617450000000     0.000000000000     0.117450000000     0          
C681     C      0.656220000000     0.000000000000     0.156220000000     0          
C682     C      0.730100000000     0.000000000000     0.230100000000     0          
C683     C      0.117450000000     0.500000000000     0.117450000000     0          
C684     C      0.156220000000     0.500000000000     0.156220000000     0          
C685     C      0.230100000000     0.500000000000     0.230100000000     0          
C686     C      0.117450000000     0.000000000000     0.617450000000     0          
C687     C      0.156220000000     0.000000000000     0.656220000000     0          
C688     C      0.230100000000     0.000000000000     0.730100000000     0          
C689     C      0.382550000000     0.500000000000     0.617450000000     0          
C690     C      0.343780000000     0.500000000000     0.656220000000     0          
C691     C      0.269900000000     0.500000000000     0.730100000000     0          
C692     C      0.382550000000     0.000000000000     0.117450000000     0          
C693     C      0.343780000000     0.000000000000     0.156220000000     0          
C694     C      0.269900000000     0.000000000000     0.230100000000     0          
C695     C      0.882550000000     0.500000000000     0.117450000000     0          
C696     C      0.843780000000     0.500000000000     0.156220000000     0          
C697     C      0.769900000000     0.500000000000     0.230100000000     0          
C698     C      0.882550000000     0.000000000000     0.617450000000     0          
C699     C      0.843780000000     0.000000000000     0.656220000000     0          
C700     C      0.769900000000     0.000000000000     0.730100000000     0          
C701     C      0.617450000000     0.500000000000     0.382550000000     0          
C702     C      0.656220000000     0.500000000000     0.343780000000     0          
C703     C      0.730100000000     0.500000000000     0.269900000000     0          
C704     C      0.617450000000     0.000000000000     0.882550000000     0          
C705     C      0.656220000000     0.000000000000     0.843780000000     0          
C706     C      0.730100000000     0.000000000000     0.769900000000     0          
C707     C      0.117450000000     0.500000000000     0.882550000000     0          
C708     C      0.156220000000     0.500000000000     0.843780000000     0          
C709     C      0.230100000000     0.500000000000     0.769900000000     0          
C710     C      0.117450000000     0.000000000000     0.382550000000     0          
C711     C      0.156220000000     0.000000000000     0.343780000000     0          
C712     C      0.230100000000     0.000000000000     0.269900000000     0          


