data_IXEJIG

_audit_creation_method RASPA-1.0
_audit_creation_date 2020-11-2
_audit_author_name 'Rocio Bueno-Perez'

_cell_length_a    35.126
_cell_length_b    35.126
_cell_length_c    11.239
_cell_angle_alpha 90
_cell_angle_beta  90
_cell_angle_gamma 90
_cell_volume      13867.1

_symmetry_cell_setting          tetragonal
_symmetry_space_group_name_Hall 'P 1'
_symmetry_space_group_name_H-M  'P 1'
_symmetry_Int_Tables_number     1

_symmetry_equiv_pos_as_xyz 'x,y,z'

loop_
_atom_site_label
_atom_site_type_symbol
_atom_site_fract_x
_atom_site_fract_y
_atom_site_fract_z
_atom_site_charge
O2       O      0.604330000000     0.459930000000     0.584400000000     0          
O3       O      0.466950000000     0.514970000000     0.347500000000     0          
O4       O      0.602160000000     0.519600000000     0.655300000000     0          
O5       O      0.909310000000     0.447840000000     0.853500000000     0          
O6       O      0.511030000000     0.557800000000     0.461800000000     0          
C1       C      0.794560000000     0.460790000000     0.804800000000     0          
H1       H      0.776800000000     0.450800000000     0.860500000000     0          
O8       O      0.922790000000     0.496220000000     0.730800000000     0          
C2       C      0.807520000000     0.494210000000     0.622100000000     0          
C3       C      0.833380000000     0.456530000000     0.824200000000     0          
H2       H      0.842200000000     0.443700000000     0.893200000000     0          
C4       C      0.859320000000     0.471120000000     0.742500000000     0          
C5       C      0.719320000000     0.451380000000     0.654600000000     0          
H3       H      0.732200000000     0.427700000000     0.648900000000     0          
C6       C      0.680320000000     0.453240000000     0.634500000000     0          
H4       H      0.666600000000     0.430800000000     0.615000000000     0          
C7       C      0.661490000000     0.487930000000     0.642900000000     0          
C8       C      0.720650000000     0.518880000000     0.691500000000     0          
C9       C      0.681640000000     0.520740000000     0.671400000000     0          
H5       H      0.668800000000     0.544400000000     0.677100000000     0          
C10      C      0.797900000000     0.512300000000     0.499300000000     0          
H6       H      0.783800000000     0.536000000000     0.511400000000     0          
H7       H      0.782400000000     0.494500000000     0.452800000000     0          
H8       H      0.821600000000     0.517700000000     0.456300000000     0          
C11      C      0.846410000000     0.489940000000     0.641600000000     0          
H9       H      0.864100000000     0.499900000000     0.585800000000     0          
C12      C      0.781660000000     0.479650000000     0.703600000000     0          
C13      C      0.900600000000     0.470900000000     0.771100000000     0          
C14      C      0.739500000000     0.484190000000     0.683000000000     0          
C15      C      0.620100000000     0.489930000000     0.621500000000     0          
C16      C      0.742000000000     0.557000000000     0.723400000000     0          
H10      H      0.723400000000     0.577500000000     0.733500000000     0          
H11      H      0.759600000000     0.563600000000     0.659000000000     0          
H12      H      0.756300000000     0.553500000000     0.797500000000     0          
Zr1      Zr     0.450570000000     0.549430000000     0.500000000000     0          
Zr2      Zr     0.543690000000     0.543690000000     0.612400000000     0          
Zr3      Zr     0.525360000000     0.525360000000     0.309050000000     0          
O2       O      0.040070000000     0.604330000000     0.084400000000     0          
O3       O      0.985030000000     0.466950000000     0.847500000000     0          
O4       O      0.980400000000     0.602160000000     0.155300000000     0          
O5       O      0.052160000000     0.909310000000     0.353500000000     0          
O6       O      0.942200000000     0.511030000000     0.961800000000     0          
C1       C      0.039210000000     0.794560000000     0.304800000000     0          
H1       H      0.049200000000     0.776800000000     0.360500000000     0          
O8       O      0.003780000000     0.922790000000     0.230800000000     0          
C2       C      0.005790000000     0.807520000000     0.122100000000     0          
C3       C      0.043470000000     0.833380000000     0.324200000000     0          
H2       H      0.056300000000     0.842200000000     0.393200000000     0          
C4       C      0.028880000000     0.859320000000     0.242500000000     0          
C5       C      0.048620000000     0.719320000000     0.154600000000     0          
H3       H      0.072300000000     0.732200000000     0.148900000000     0          
C6       C      0.046760000000     0.680320000000     0.134500000000     0          
H4       H      0.069200000000     0.666600000000     0.115000000000     0          
C7       C      0.012070000000     0.661490000000     0.142900000000     0          
C8       C      0.981120000000     0.720650000000     0.191500000000     0          
C9       C      0.979260000000     0.681640000000     0.171400000000     0          
H5       H      0.955600000000     0.668800000000     0.177100000000     0          
C10      C      0.987700000000     0.797900000000     0.999300000000     0          
H6       H      0.964000000000     0.783800000000     0.011400000000     0          
H7       H      0.005500000000     0.782400000000     0.952800000000     0          
H8       H      0.982300000000     0.821600000000     0.956300000000     0          
C11      C      0.010060000000     0.846410000000     0.141600000000     0          
H9       H      0.000100000000     0.864100000000     0.085800000000     0          
C12      C      0.020350000000     0.781660000000     0.203600000000     0          
C13      C      0.029100000000     0.900600000000     0.271100000000     0          
C14      C      0.015810000000     0.739500000000     0.183000000000     0          
C15      C      0.010070000000     0.620100000000     0.121500000000     0          
C16      C      0.943000000000     0.742000000000     0.223400000000     0          
H10      H      0.922500000000     0.723400000000     0.233500000000     0          
H11      H      0.936400000000     0.759600000000     0.159000000000     0          
H12      H      0.946500000000     0.756300000000     0.297500000000     0          
Zr1      Zr     0.950570000000     0.450570000000     0.000000000000     0          
Zr2      Zr     0.956310000000     0.543690000000     0.112400000000     0          
Zr3      Zr     0.974640000000     0.525360000000     0.809050000000     0          
O2       O      0.895670000000     0.040070000000     0.584400000000     0          
O3       O      0.033050000000     0.985030000000     0.347500000000     0          
O4       O      0.897840000000     0.980400000000     0.655300000000     0          
O5       O      0.590690000000     0.052160000000     0.853500000000     0          
O6       O      0.988970000000     0.942200000000     0.461800000000     0          
C1       C      0.705440000000     0.039210000000     0.804800000000     0          
H1       H      0.723200000000     0.049200000000     0.860500000000     0          
O8       O      0.577210000000     0.003780000000     0.730800000000     0          
C2       C      0.692480000000     0.005790000000     0.622100000000     0          
C3       C      0.666620000000     0.043470000000     0.824200000000     0          
H2       H      0.657800000000     0.056300000000     0.893200000000     0          
C4       C      0.640680000000     0.028880000000     0.742500000000     0          
C5       C      0.780680000000     0.048620000000     0.654600000000     0          
H3       H      0.767800000000     0.072300000000     0.648900000000     0          
C6       C      0.819680000000     0.046760000000     0.634500000000     0          
H4       H      0.833400000000     0.069200000000     0.615000000000     0          
C7       C      0.838510000000     0.012070000000     0.642900000000     0          
C8       C      0.779350000000     0.981120000000     0.691500000000     0          
C9       C      0.818360000000     0.979260000000     0.671400000000     0          
H5       H      0.831200000000     0.955600000000     0.677100000000     0          
C10      C      0.702100000000     0.987700000000     0.499300000000     0          
H6       H      0.716200000000     0.964000000000     0.511400000000     0          
H7       H      0.717600000000     0.005500000000     0.452800000000     0          
H8       H      0.678400000000     0.982300000000     0.456300000000     0          
C11      C      0.653590000000     0.010060000000     0.641600000000     0          
H9       H      0.635900000000     0.000100000000     0.585800000000     0          
C12      C      0.718340000000     0.020350000000     0.703600000000     0          
C13      C      0.599400000000     0.029100000000     0.771100000000     0          
C14      C      0.760500000000     0.015810000000     0.683000000000     0          
C15      C      0.879900000000     0.010070000000     0.621500000000     0          
C16      C      0.758000000000     0.943000000000     0.723400000000     0          
H10      H      0.776600000000     0.922500000000     0.733500000000     0          
H11      H      0.740400000000     0.936400000000     0.659000000000     0          
H12      H      0.743700000000     0.946500000000     0.797500000000     0          
Zr1      Zr     0.049430000000     0.950570000000     0.500000000000     0          
Zr2      Zr     0.956310000000     0.956310000000     0.612400000000     0          
Zr3      Zr     0.974640000000     0.974640000000     0.309050000000     0          
O2       O      0.459930000000     0.895670000000     0.084400000000     0          
O3       O      0.514970000000     0.033050000000     0.847500000000     0          
O4       O      0.519600000000     0.897840000000     0.155300000000     0          
O5       O      0.447840000000     0.590690000000     0.353500000000     0          
O6       O      0.557800000000     0.988970000000     0.961800000000     0          
C1       C      0.460790000000     0.705440000000     0.304800000000     0          
H1       H      0.450800000000     0.723200000000     0.360500000000     0          
O8       O      0.496220000000     0.577210000000     0.230800000000     0          
C2       C      0.494210000000     0.692480000000     0.122100000000     0          
C3       C      0.456530000000     0.666620000000     0.324200000000     0          
H2       H      0.443700000000     0.657800000000     0.393200000000     0          
C4       C      0.471120000000     0.640680000000     0.242500000000     0          
C5       C      0.451380000000     0.780680000000     0.154600000000     0          
H3       H      0.427700000000     0.767800000000     0.148900000000     0          
C6       C      0.453240000000     0.819680000000     0.134500000000     0          
H4       H      0.430800000000     0.833400000000     0.115000000000     0          
C7       C      0.487930000000     0.838510000000     0.142900000000     0          
C8       C      0.518880000000     0.779350000000     0.191500000000     0          
C9       C      0.520740000000     0.818360000000     0.171400000000     0          
H5       H      0.544400000000     0.831200000000     0.177100000000     0          
C10      C      0.512300000000     0.702100000000     0.999300000000     0          
H6       H      0.536000000000     0.716200000000     0.011400000000     0          
H7       H      0.494500000000     0.717600000000     0.952800000000     0          
H8       H      0.517700000000     0.678400000000     0.956300000000     0          
C11      C      0.489940000000     0.653590000000     0.141600000000     0          
H9       H      0.499900000000     0.635900000000     0.085800000000     0          
C12      C      0.479650000000     0.718340000000     0.203600000000     0          
C13      C      0.470900000000     0.599400000000     0.271100000000     0          
C14      C      0.484190000000     0.760500000000     0.183000000000     0          
C15      C      0.489930000000     0.879900000000     0.121500000000     0          
C16      C      0.557000000000     0.758000000000     0.223400000000     0          
H10      H      0.577500000000     0.776600000000     0.233500000000     0          
H11      H      0.563600000000     0.740400000000     0.159000000000     0          
H12      H      0.553500000000     0.743700000000     0.297500000000     0          
Zr1      Zr     0.549430000000     0.049430000000     0.000000000000     0          
Zr2      Zr     0.543690000000     0.956310000000     0.112400000000     0          
Zr3      Zr     0.525360000000     0.974640000000     0.809050000000     0          
O2       O      0.104330000000     0.540070000000     0.915600000000     0          
O3       O      0.966950000000     0.485030000000     0.152500000000     0          
O4       O      0.102160000000     0.480400000000     0.844700000000     0          
O5       O      0.409310000000     0.552160000000     0.646500000000     0          
O6       O      0.011030000000     0.442200000000     0.038200000000     0          
C1       C      0.294560000000     0.539210000000     0.695200000000     0          
H1       H      0.276800000000     0.549200000000     0.639500000000     0          
O8       O      0.422790000000     0.503780000000     0.769200000000     0          
C2       C      0.307520000000     0.505790000000     0.877900000000     0          
C3       C      0.333380000000     0.543470000000     0.675800000000     0          
H2       H      0.342200000000     0.556300000000     0.606800000000     0          
C4       C      0.359320000000     0.528880000000     0.757500000000     0          
C5       C      0.219320000000     0.548620000000     0.845400000000     0          
H3       H      0.232200000000     0.572300000000     0.851100000000     0          
C6       C      0.180320000000     0.546760000000     0.865500000000     0          
H4       H      0.166600000000     0.569200000000     0.885000000000     0          
C7       C      0.161490000000     0.512070000000     0.857100000000     0          
C8       C      0.220650000000     0.481120000000     0.808500000000     0          
C9       C      0.181640000000     0.479260000000     0.828600000000     0          
H5       H      0.168800000000     0.455600000000     0.822900000000     0          
C10      C      0.297900000000     0.487700000000     0.000700000000     0          
H6       H      0.283800000000     0.464000000000     0.988600000000     0          
H7       H      0.282400000000     0.505500000000     0.047200000000     0          
H8       H      0.321600000000     0.482300000000     0.043700000000     0          
C11      C      0.346410000000     0.510060000000     0.858400000000     0          
H9       H      0.364100000000     0.500100000000     0.914200000000     0          
C12      C      0.281660000000     0.520350000000     0.796400000000     0          
C13      C      0.400600000000     0.529100000000     0.728900000000     0          
C14      C      0.239500000000     0.515810000000     0.817000000000     0          
C15      C      0.120100000000     0.510070000000     0.878500000000     0          
C16      C      0.242000000000     0.443000000000     0.776600000000     0          
H10      H      0.223400000000     0.422500000000     0.766500000000     0          
H11      H      0.259600000000     0.436400000000     0.841000000000     0          
H12      H      0.256300000000     0.446500000000     0.702500000000     0          
Zr2      Zr     0.043690000000     0.456310000000     0.887600000000     0          
Zr3      Zr     0.025360000000     0.474640000000     0.190950000000     0          
O2       O      0.959930000000     0.104330000000     0.415600000000     0          
O3       O      0.014970000000     0.966950000000     0.652500000000     0          
O4       O      0.019600000000     0.102160000000     0.344700000000     0          
O5       O      0.947840000000     0.409310000000     0.146500000000     0          
O6       O      0.057800000000     0.011030000000     0.538200000000     0          
C1       C      0.960790000000     0.294560000000     0.195200000000     0          
H1       H      0.950800000000     0.276800000000     0.139500000000     0          
O8       O      0.996220000000     0.422790000000     0.269200000000     0          
C2       C      0.994210000000     0.307520000000     0.377900000000     0          
C3       C      0.956530000000     0.333380000000     0.175800000000     0          
H2       H      0.943700000000     0.342200000000     0.106800000000     0          
C4       C      0.971120000000     0.359320000000     0.257500000000     0          
C5       C      0.951380000000     0.219320000000     0.345400000000     0          
H3       H      0.927700000000     0.232200000000     0.351100000000     0          
C6       C      0.953240000000     0.180320000000     0.365500000000     0          
H4       H      0.930800000000     0.166600000000     0.385000000000     0          
C7       C      0.987930000000     0.161490000000     0.357100000000     0          
C8       C      0.018880000000     0.220650000000     0.308500000000     0          
C9       C      0.020740000000     0.181640000000     0.328600000000     0          
H5       H      0.044400000000     0.168800000000     0.322900000000     0          
C10      C      0.012300000000     0.297900000000     0.500700000000     0          
H6       H      0.036000000000     0.283800000000     0.488600000000     0          
H7       H      0.994500000000     0.282400000000     0.547200000000     0          
H8       H      0.017700000000     0.321600000000     0.543700000000     0          
C11      C      0.989940000000     0.346410000000     0.358400000000     0          
H9       H      0.999900000000     0.364100000000     0.414200000000     0          
C12      C      0.979650000000     0.281660000000     0.296400000000     0          
C13      C      0.970900000000     0.400600000000     0.228900000000     0          
C14      C      0.984190000000     0.239500000000     0.317000000000     0          
C15      C      0.989930000000     0.120100000000     0.378500000000     0          
C16      C      0.057000000000     0.242000000000     0.276600000000     0          
H10      H      0.077500000000     0.223400000000     0.266500000000     0          
H11      H      0.063600000000     0.259600000000     0.341000000000     0          
H12      H      0.053500000000     0.256300000000     0.202500000000     0          
Zr2      Zr     0.043690000000     0.043690000000     0.387600000000     0          
Zr3      Zr     0.025360000000     0.025360000000     0.690950000000     0          
O2       O      0.395670000000     0.959930000000     0.915600000000     0          
O3       O      0.533050000000     0.014970000000     0.152500000000     0          
O4       O      0.397840000000     0.019600000000     0.844700000000     0          
O5       O      0.090690000000     0.947840000000     0.646500000000     0          
O6       O      0.488970000000     0.057800000000     0.038200000000     0          
C1       C      0.205440000000     0.960790000000     0.695200000000     0          
H1       H      0.223200000000     0.950800000000     0.639500000000     0          
O8       O      0.077210000000     0.996220000000     0.769200000000     0          
C2       C      0.192480000000     0.994210000000     0.877900000000     0          
C3       C      0.166620000000     0.956530000000     0.675800000000     0          
H2       H      0.157800000000     0.943700000000     0.606800000000     0          
C4       C      0.140680000000     0.971120000000     0.757500000000     0          
C5       C      0.280680000000     0.951380000000     0.845400000000     0          
H3       H      0.267800000000     0.927700000000     0.851100000000     0          
C6       C      0.319680000000     0.953240000000     0.865500000000     0          
H4       H      0.333400000000     0.930800000000     0.885000000000     0          
C7       C      0.338510000000     0.987930000000     0.857100000000     0          
C8       C      0.279350000000     0.018880000000     0.808500000000     0          
C9       C      0.318360000000     0.020740000000     0.828600000000     0          
H5       H      0.331200000000     0.044400000000     0.822900000000     0          
C10      C      0.202100000000     0.012300000000     0.000700000000     0          
H6       H      0.216200000000     0.036000000000     0.988600000000     0          
H7       H      0.217600000000     0.994500000000     0.047200000000     0          
H8       H      0.178400000000     0.017700000000     0.043700000000     0          
C11      C      0.153590000000     0.989940000000     0.858400000000     0          
H9       H      0.135900000000     0.999900000000     0.914200000000     0          
C12      C      0.218340000000     0.979650000000     0.796400000000     0          
C13      C      0.099400000000     0.970900000000     0.728900000000     0          
C14      C      0.260500000000     0.984190000000     0.817000000000     0          
C15      C      0.379900000000     0.989930000000     0.878500000000     0          
C16      C      0.258000000000     0.057000000000     0.776600000000     0          
H10      H      0.276600000000     0.077500000000     0.766500000000     0          
H11      H      0.240400000000     0.063600000000     0.841000000000     0          
H12      H      0.243700000000     0.053500000000     0.702500000000     0          
Zr2      Zr     0.456310000000     0.043690000000     0.887600000000     0          
Zr3      Zr     0.474640000000     0.025360000000     0.190950000000     0          
O2       O      0.540070000000     0.395670000000     0.415600000000     0          
O3       O      0.485030000000     0.533050000000     0.652500000000     0          
O4       O      0.480400000000     0.397840000000     0.344700000000     0          
O5       O      0.552160000000     0.090690000000     0.146500000000     0          
O6       O      0.442200000000     0.488970000000     0.538200000000     0          
C1       C      0.539210000000     0.205440000000     0.195200000000     0          
H1       H      0.549200000000     0.223200000000     0.139500000000     0          
O8       O      0.503780000000     0.077210000000     0.269200000000     0          
C2       C      0.505790000000     0.192480000000     0.377900000000     0          
C3       C      0.543470000000     0.166620000000     0.175800000000     0          
H2       H      0.556300000000     0.157800000000     0.106800000000     0          
C4       C      0.528880000000     0.140680000000     0.257500000000     0          
C5       C      0.548620000000     0.280680000000     0.345400000000     0          
H3       H      0.572300000000     0.267800000000     0.351100000000     0          
C6       C      0.546760000000     0.319680000000     0.365500000000     0          
H4       H      0.569200000000     0.333400000000     0.385000000000     0          
C7       C      0.512070000000     0.338510000000     0.357100000000     0          
C8       C      0.481120000000     0.279350000000     0.308500000000     0          
C9       C      0.479260000000     0.318360000000     0.328600000000     0          
H5       H      0.455600000000     0.331200000000     0.322900000000     0          
C10      C      0.487700000000     0.202100000000     0.500700000000     0          
H6       H      0.464000000000     0.216200000000     0.488600000000     0          
H7       H      0.505500000000     0.217600000000     0.547200000000     0          
H8       H      0.482300000000     0.178400000000     0.543700000000     0          
C11      C      0.510060000000     0.153590000000     0.358400000000     0          
H9       H      0.500100000000     0.135900000000     0.414200000000     0          
C12      C      0.520350000000     0.218340000000     0.296400000000     0          
C13      C      0.529100000000     0.099400000000     0.228900000000     0          
C14      C      0.515810000000     0.260500000000     0.317000000000     0          
C15      C      0.510070000000     0.379900000000     0.378500000000     0          
C16      C      0.443000000000     0.258000000000     0.276600000000     0          
H10      H      0.422500000000     0.276600000000     0.266500000000     0          
H11      H      0.436400000000     0.240400000000     0.341000000000     0          
H12      H      0.446500000000     0.243700000000     0.202500000000     0          
Zr2      Zr     0.456310000000     0.456310000000     0.387600000000     0          
Zr3      Zr     0.474640000000     0.474640000000     0.690950000000     0          
O2       O      0.395670000000     0.540070000000     0.415600000000     0          
O3       O      0.533050000000     0.485030000000     0.652500000000     0          
O4       O      0.397840000000     0.480400000000     0.344700000000     0          
O5       O      0.090690000000     0.552160000000     0.146500000000     0          
O6       O      0.488970000000     0.442200000000     0.538200000000     0          
C1       C      0.205440000000     0.539210000000     0.195200000000     0          
H1       H      0.223200000000     0.549200000000     0.139500000000     0          
O8       O      0.077210000000     0.503780000000     0.269200000000     0          
C2       C      0.192480000000     0.505790000000     0.377900000000     0          
C3       C      0.166620000000     0.543470000000     0.175800000000     0          
H2       H      0.157800000000     0.556300000000     0.106800000000     0          
C4       C      0.140680000000     0.528880000000     0.257500000000     0          
C5       C      0.280680000000     0.548620000000     0.345400000000     0          
H3       H      0.267800000000     0.572300000000     0.351100000000     0          
C6       C      0.319680000000     0.546760000000     0.365500000000     0          
H4       H      0.333400000000     0.569200000000     0.385000000000     0          
C7       C      0.338510000000     0.512070000000     0.357100000000     0          
C8       C      0.279350000000     0.481120000000     0.308500000000     0          
C9       C      0.318360000000     0.479260000000     0.328600000000     0          
H5       H      0.331200000000     0.455600000000     0.322900000000     0          
C10      C      0.202100000000     0.487700000000     0.500700000000     0          
H6       H      0.216200000000     0.464000000000     0.488600000000     0          
H7       H      0.217600000000     0.505500000000     0.547200000000     0          
H8       H      0.178400000000     0.482300000000     0.543700000000     0          
C11      C      0.153590000000     0.510060000000     0.358400000000     0          
H9       H      0.135900000000     0.500100000000     0.414200000000     0          
C12      C      0.218340000000     0.520350000000     0.296400000000     0          
C13      C      0.099400000000     0.529100000000     0.228900000000     0          
C14      C      0.260500000000     0.515810000000     0.317000000000     0          
C15      C      0.379900000000     0.510070000000     0.378500000000     0          
C16      C      0.258000000000     0.443000000000     0.276600000000     0          
H10      H      0.276600000000     0.422500000000     0.266500000000     0          
H11      H      0.240400000000     0.436400000000     0.341000000000     0          
H12      H      0.243700000000     0.446500000000     0.202500000000     0          
Zr1      Zr     0.549430000000     0.450570000000     0.500000000000     0          
O2       O      0.959930000000     0.395670000000     0.915600000000     0          
O3       O      0.014970000000     0.533050000000     0.152500000000     0          
O4       O      0.019600000000     0.397840000000     0.844700000000     0          
O5       O      0.947840000000     0.090690000000     0.646500000000     0          
O6       O      0.057800000000     0.488970000000     0.038200000000     0          
C1       C      0.960790000000     0.205440000000     0.695200000000     0          
H1       H      0.950800000000     0.223200000000     0.639500000000     0          
O8       O      0.996220000000     0.077210000000     0.769200000000     0          
C2       C      0.994210000000     0.192480000000     0.877900000000     0          
C3       C      0.956530000000     0.166620000000     0.675800000000     0          
H2       H      0.943700000000     0.157800000000     0.606800000000     0          
C4       C      0.971120000000     0.140680000000     0.757500000000     0          
C5       C      0.951380000000     0.280680000000     0.845400000000     0          
H3       H      0.927700000000     0.267800000000     0.851100000000     0          
C6       C      0.953240000000     0.319680000000     0.865500000000     0          
H4       H      0.930800000000     0.333400000000     0.885000000000     0          
C7       C      0.987930000000     0.338510000000     0.857100000000     0          
C8       C      0.018880000000     0.279350000000     0.808500000000     0          
C9       C      0.020740000000     0.318360000000     0.828600000000     0          
H5       H      0.044400000000     0.331200000000     0.822900000000     0          
C10      C      0.012300000000     0.202100000000     0.000700000000     0          
H6       H      0.036000000000     0.216200000000     0.988600000000     0          
H7       H      0.994500000000     0.217600000000     0.047200000000     0          
H8       H      0.017700000000     0.178400000000     0.043700000000     0          
C11      C      0.989940000000     0.153590000000     0.858400000000     0          
H9       H      0.999900000000     0.135900000000     0.914200000000     0          
C12      C      0.979650000000     0.218340000000     0.796400000000     0          
C13      C      0.970900000000     0.099400000000     0.728900000000     0          
C14      C      0.984190000000     0.260500000000     0.817000000000     0          
C15      C      0.989930000000     0.379900000000     0.878500000000     0          
C16      C      0.057000000000     0.258000000000     0.776600000000     0          
H10      H      0.077500000000     0.276600000000     0.766500000000     0          
H11      H      0.063600000000     0.240400000000     0.841000000000     0          
H12      H      0.053500000000     0.243700000000     0.702500000000     0          
Zr1      Zr     0.049430000000     0.549430000000     0.000000000000     0          
O2       O      0.104330000000     0.959930000000     0.415600000000     0          
O3       O      0.966950000000     0.014970000000     0.652500000000     0          
O4       O      0.102160000000     0.019600000000     0.344700000000     0          
O5       O      0.409310000000     0.947840000000     0.146500000000     0          
O6       O      0.011030000000     0.057800000000     0.538200000000     0          
C1       C      0.294560000000     0.960790000000     0.195200000000     0          
H1       H      0.276800000000     0.950800000000     0.139500000000     0          
O8       O      0.422790000000     0.996220000000     0.269200000000     0          
C2       C      0.307520000000     0.994210000000     0.377900000000     0          
C3       C      0.333380000000     0.956530000000     0.175800000000     0          
H2       H      0.342200000000     0.943700000000     0.106800000000     0          
C4       C      0.359320000000     0.971120000000     0.257500000000     0          
C5       C      0.219320000000     0.951380000000     0.345400000000     0          
H3       H      0.232200000000     0.927700000000     0.351100000000     0          
C6       C      0.180320000000     0.953240000000     0.365500000000     0          
H4       H      0.166600000000     0.930800000000     0.385000000000     0          
C7       C      0.161490000000     0.987930000000     0.357100000000     0          
C8       C      0.220650000000     0.018880000000     0.308500000000     0          
C9       C      0.181640000000     0.020740000000     0.328600000000     0          
H5       H      0.168800000000     0.044400000000     0.322900000000     0          
C10      C      0.297900000000     0.012300000000     0.500700000000     0          
H6       H      0.283800000000     0.036000000000     0.488600000000     0          
H7       H      0.282400000000     0.994500000000     0.547200000000     0          
H8       H      0.321600000000     0.017700000000     0.543700000000     0          
C11      C      0.346410000000     0.989940000000     0.358400000000     0          
H9       H      0.364100000000     0.999900000000     0.414200000000     0          
C12      C      0.281660000000     0.979650000000     0.296400000000     0          
C13      C      0.400600000000     0.970900000000     0.228900000000     0          
C14      C      0.239500000000     0.984190000000     0.317000000000     0          
C15      C      0.120100000000     0.989930000000     0.378500000000     0          
C16      C      0.242000000000     0.057000000000     0.276600000000     0          
H10      H      0.223400000000     0.077500000000     0.266500000000     0          
H11      H      0.259600000000     0.063600000000     0.341000000000     0          
H12      H      0.256300000000     0.053500000000     0.202500000000     0          
Zr1      Zr     0.950570000000     0.049430000000     0.500000000000     0          
O2       O      0.540070000000     0.104330000000     0.915600000000     0          
O3       O      0.485030000000     0.966950000000     0.152500000000     0          
O4       O      0.480400000000     0.102160000000     0.844700000000     0          
O5       O      0.552160000000     0.409310000000     0.646500000000     0          
O6       O      0.442200000000     0.011030000000     0.038200000000     0          
C1       C      0.539210000000     0.294560000000     0.695200000000     0          
H1       H      0.549200000000     0.276800000000     0.639500000000     0          
O8       O      0.503780000000     0.422790000000     0.769200000000     0          
C2       C      0.505790000000     0.307520000000     0.877900000000     0          
C3       C      0.543470000000     0.333380000000     0.675800000000     0          
H2       H      0.556300000000     0.342200000000     0.606800000000     0          
C4       C      0.528880000000     0.359320000000     0.757500000000     0          
C5       C      0.548620000000     0.219320000000     0.845400000000     0          
H3       H      0.572300000000     0.232200000000     0.851100000000     0          
C6       C      0.546760000000     0.180320000000     0.865500000000     0          
H4       H      0.569200000000     0.166600000000     0.885000000000     0          
C7       C      0.512070000000     0.161490000000     0.857100000000     0          
C8       C      0.481120000000     0.220650000000     0.808500000000     0          
C9       C      0.479260000000     0.181640000000     0.828600000000     0          
H5       H      0.455600000000     0.168800000000     0.822900000000     0          
C10      C      0.487700000000     0.297900000000     0.000700000000     0          
H6       H      0.464000000000     0.283800000000     0.988600000000     0          
H7       H      0.505500000000     0.282400000000     0.047200000000     0          
H8       H      0.482300000000     0.321600000000     0.043700000000     0          
C11      C      0.510060000000     0.346410000000     0.858400000000     0          
H9       H      0.500100000000     0.364100000000     0.914200000000     0          
C12      C      0.520350000000     0.281660000000     0.796400000000     0          
C13      C      0.529100000000     0.400600000000     0.728900000000     0          
C14      C      0.515810000000     0.239500000000     0.817000000000     0          
C15      C      0.510070000000     0.120100000000     0.878500000000     0          
C16      C      0.443000000000     0.242000000000     0.776600000000     0          
H10      H      0.422500000000     0.223400000000     0.766500000000     0          
H11      H      0.436400000000     0.259600000000     0.841000000000     0          
H12      H      0.446500000000     0.256300000000     0.702500000000     0          
Zr1      Zr     0.450570000000     0.950570000000     0.000000000000     0          
O2       O      0.895670000000     0.459930000000     0.084400000000     0          
O3       O      0.033050000000     0.514970000000     0.847500000000     0          
O4       O      0.897840000000     0.519600000000     0.155300000000     0          
O5       O      0.590690000000     0.447840000000     0.353500000000     0          
O6       O      0.988970000000     0.557800000000     0.961800000000     0          
C1       C      0.705440000000     0.460790000000     0.304800000000     0          
H1       H      0.723200000000     0.450800000000     0.360500000000     0          
O8       O      0.577210000000     0.496220000000     0.230800000000     0          
C2       C      0.692480000000     0.494210000000     0.122100000000     0          
C3       C      0.666620000000     0.456530000000     0.324200000000     0          
H2       H      0.657800000000     0.443700000000     0.393200000000     0          
C4       C      0.640680000000     0.471120000000     0.242500000000     0          
C5       C      0.780680000000     0.451380000000     0.154600000000     0          
H3       H      0.767800000000     0.427700000000     0.148900000000     0          
C6       C      0.819680000000     0.453240000000     0.134500000000     0          
H4       H      0.833400000000     0.430800000000     0.115000000000     0          
C7       C      0.838510000000     0.487930000000     0.142900000000     0          
C8       C      0.779350000000     0.518880000000     0.191500000000     0          
C9       C      0.818360000000     0.520740000000     0.171400000000     0          
H5       H      0.831200000000     0.544400000000     0.177100000000     0          
C10      C      0.702100000000     0.512300000000     0.999300000000     0          
H6       H      0.716200000000     0.536000000000     0.011400000000     0          
H7       H      0.717600000000     0.494500000000     0.952800000000     0          
H8       H      0.678400000000     0.517700000000     0.956300000000     0          
C11      C      0.653590000000     0.489940000000     0.141600000000     0          
H9       H      0.635900000000     0.499900000000     0.085800000000     0          
C12      C      0.718340000000     0.479650000000     0.203600000000     0          
C13      C      0.599400000000     0.470900000000     0.271100000000     0          
C14      C      0.760500000000     0.484190000000     0.183000000000     0          
C15      C      0.879900000000     0.489930000000     0.121500000000     0          
C16      C      0.758000000000     0.557000000000     0.223400000000     0          
H10      H      0.776600000000     0.577500000000     0.233500000000     0          
H11      H      0.740400000000     0.563600000000     0.159000000000     0          
H12      H      0.743700000000     0.553500000000     0.297500000000     0          
O2       O      0.040070000000     0.895670000000     0.584400000000     0          
O3       O      0.985030000000     0.033050000000     0.347500000000     0          
O4       O      0.980400000000     0.897840000000     0.655300000000     0          
O5       O      0.052160000000     0.590690000000     0.853500000000     0          
O6       O      0.942200000000     0.988970000000     0.461800000000     0          
C1       C      0.039210000000     0.705440000000     0.804800000000     0          
H1       H      0.049200000000     0.723200000000     0.860500000000     0          
O8       O      0.003780000000     0.577210000000     0.730800000000     0          
C2       C      0.005790000000     0.692480000000     0.622100000000     0          
C3       C      0.043470000000     0.666620000000     0.824200000000     0          
H2       H      0.056300000000     0.657800000000     0.893200000000     0          
C4       C      0.028880000000     0.640680000000     0.742500000000     0          
C5       C      0.048620000000     0.780680000000     0.654600000000     0          
H3       H      0.072300000000     0.767800000000     0.648900000000     0          
C6       C      0.046760000000     0.819680000000     0.634500000000     0          
H4       H      0.069200000000     0.833400000000     0.615000000000     0          
C7       C      0.012070000000     0.838510000000     0.642900000000     0          
C8       C      0.981120000000     0.779350000000     0.691500000000     0          
C9       C      0.979260000000     0.818360000000     0.671400000000     0          
H5       H      0.955600000000     0.831200000000     0.677100000000     0          
C10      C      0.987700000000     0.702100000000     0.499300000000     0          
H6       H      0.964000000000     0.716200000000     0.511400000000     0          
H7       H      0.005500000000     0.717600000000     0.452800000000     0          
H8       H      0.982300000000     0.678400000000     0.456300000000     0          
C11      C      0.010060000000     0.653590000000     0.641600000000     0          
H9       H      0.000100000000     0.635900000000     0.585800000000     0          
C12      C      0.020350000000     0.718340000000     0.703600000000     0          
C13      C      0.029100000000     0.599400000000     0.771100000000     0          
C14      C      0.015810000000     0.760500000000     0.683000000000     0          
C15      C      0.010070000000     0.879900000000     0.621500000000     0          
C16      C      0.943000000000     0.758000000000     0.723400000000     0          
H10      H      0.922500000000     0.776600000000     0.733500000000     0          
H11      H      0.936400000000     0.740400000000     0.659000000000     0          
H12      H      0.946500000000     0.743700000000     0.797500000000     0          
O2       O      0.604330000000     0.040070000000     0.084400000000     0          
O3       O      0.466950000000     0.985030000000     0.847500000000     0          
O4       O      0.602160000000     0.980400000000     0.155300000000     0          
O5       O      0.909310000000     0.052160000000     0.353500000000     0          
O6       O      0.511030000000     0.942200000000     0.961800000000     0          
C1       C      0.794560000000     0.039210000000     0.304800000000     0          
H1       H      0.776800000000     0.049200000000     0.360500000000     0          
O8       O      0.922790000000     0.003780000000     0.230800000000     0          
C2       C      0.807520000000     0.005790000000     0.122100000000     0          
C3       C      0.833380000000     0.043470000000     0.324200000000     0          
H2       H      0.842200000000     0.056300000000     0.393200000000     0          
C4       C      0.859320000000     0.028880000000     0.242500000000     0          
C5       C      0.719320000000     0.048620000000     0.154600000000     0          
H3       H      0.732200000000     0.072300000000     0.148900000000     0          
C6       C      0.680320000000     0.046760000000     0.134500000000     0          
H4       H      0.666600000000     0.069200000000     0.115000000000     0          
C7       C      0.661490000000     0.012070000000     0.142900000000     0          
C8       C      0.720650000000     0.981120000000     0.191500000000     0          
C9       C      0.681640000000     0.979260000000     0.171400000000     0          
H5       H      0.668800000000     0.955600000000     0.177100000000     0          
C10      C      0.797900000000     0.987700000000     0.999300000000     0          
H6       H      0.783800000000     0.964000000000     0.011400000000     0          
H7       H      0.782400000000     0.005500000000     0.952800000000     0          
H8       H      0.821600000000     0.982300000000     0.956300000000     0          
C11      C      0.846410000000     0.010060000000     0.141600000000     0          
H9       H      0.864100000000     0.000100000000     0.085800000000     0          
C12      C      0.781660000000     0.020350000000     0.203600000000     0          
C13      C      0.900600000000     0.029100000000     0.271100000000     0          
C14      C      0.739500000000     0.015810000000     0.183000000000     0          
C15      C      0.620100000000     0.010070000000     0.121500000000     0          
C16      C      0.742000000000     0.943000000000     0.223400000000     0          
H10      H      0.723400000000     0.922500000000     0.233500000000     0          
H11      H      0.759600000000     0.936400000000     0.159000000000     0          
H12      H      0.756300000000     0.946500000000     0.297500000000     0          
O2       O      0.459930000000     0.604330000000     0.584400000000     0          
O3       O      0.514970000000     0.466950000000     0.347500000000     0          
O4       O      0.519600000000     0.602160000000     0.655300000000     0          
O5       O      0.447840000000     0.909310000000     0.853500000000     0          
O6       O      0.557800000000     0.511030000000     0.461800000000     0          
C1       C      0.460790000000     0.794560000000     0.804800000000     0          
H1       H      0.450800000000     0.776800000000     0.860500000000     0          
O8       O      0.496220000000     0.922790000000     0.730800000000     0          
C2       C      0.494210000000     0.807520000000     0.622100000000     0          
C3       C      0.456530000000     0.833380000000     0.824200000000     0          
H2       H      0.443700000000     0.842200000000     0.893200000000     0          
C4       C      0.471120000000     0.859320000000     0.742500000000     0          
C5       C      0.451380000000     0.719320000000     0.654600000000     0          
H3       H      0.427700000000     0.732200000000     0.648900000000     0          
C6       C      0.453240000000     0.680320000000     0.634500000000     0          
H4       H      0.430800000000     0.666600000000     0.615000000000     0          
C7       C      0.487930000000     0.661490000000     0.642900000000     0          
C8       C      0.518880000000     0.720650000000     0.691500000000     0          
C9       C      0.520740000000     0.681640000000     0.671400000000     0          
H5       H      0.544400000000     0.668800000000     0.677100000000     0          
C10      C      0.512300000000     0.797900000000     0.499300000000     0          
H6       H      0.536000000000     0.783800000000     0.511400000000     0          
H7       H      0.494500000000     0.782400000000     0.452800000000     0          
H8       H      0.517700000000     0.821600000000     0.456300000000     0          
C11      C      0.489940000000     0.846410000000     0.641600000000     0          
H9       H      0.499900000000     0.864100000000     0.585800000000     0          
C12      C      0.479650000000     0.781660000000     0.703600000000     0          
C13      C      0.470900000000     0.900600000000     0.771100000000     0          
C14      C      0.484190000000     0.739500000000     0.683000000000     0          
C15      C      0.489930000000     0.620100000000     0.621500000000     0          
C16      C      0.557000000000     0.742000000000     0.723400000000     0          
H10      H      0.577500000000     0.723400000000     0.733500000000     0          
H11      H      0.563600000000     0.759600000000     0.659000000000     0          
H12      H      0.553500000000     0.756300000000     0.797500000000     0          


