data_IXEJUS

_audit_creation_method RASPA-1.0
_audit_creation_date 2020-11-23
_audit_author_name 'Rocio Bueno-Perez'

_cell_length_a    34.06
_cell_length_b    34.06
_cell_length_c    14.085
_cell_angle_alpha 90
_cell_angle_beta  90
_cell_angle_gamma 90
_cell_volume      16339.8

_symmetry_cell_setting          triclinic
_symmetry_space_group_name_Hall 'P 1'
_symmetry_space_group_name_H-M  'P 1'
_symmetry_Int_Tables_number     1

_symmetry_equiv_pos_as_xyz 'x,y,z'

loop_
_atom_site_label
_atom_site_type_symbol
_atom_site_fract_x
_atom_site_fract_y
_atom_site_fract_z
_atom_site_charge
O1       O      0.392040000000     0.541170000000     0.562400000000     0          
O2       O      0.509760000000     0.559000000000     0.536600000000     0          
O3       O      0.463800000000     0.513760000000     0.617800000000     0          
O4       O      0.092810000000     0.554270000000     0.883700000000     0          
O5       O      0.395200000000     0.479400000000     0.616900000000     0          
C6       C      0.275190000000     0.549150000000     0.637400000000     0          
O7       O      0.074100000000     0.506800000000     0.780200000000     0          
C8       C      0.251800000000     0.585500000000     0.614200000000     0          
H9       H      0.269600000000     0.606800000000     0.596500000000     0          
H10      H      0.236200000000     0.593400000000     0.669500000000     0          
H11      H      0.234200000000     0.579700000000     0.560900000000     0          
C12      C      0.217510000000     0.522460000000     0.717100000000     0          
C13      C      0.314040000000     0.546590000000     0.608000000000     0          
H14      H      0.325700000000     0.567600000000     0.573600000000     0          
C15      C      0.209170000000     0.540270000000     0.803600000000     0          
C16      C      0.148670000000     0.510080000000     0.693100000000     0          
H17      H      0.128000000000     0.499800000000     0.655300000000     0          
C18      C      0.258180000000     0.518480000000     0.687800000000     0          
C19      C      0.280000000000     0.485120000000     0.709000000000     0          
C20      C      0.239900000000     0.557500000000     0.868500000000     0          
H21      H      0.265000000000     0.545500000000     0.850900000000     0          
H22      H      0.233800000000     0.551100000000     0.934700000000     0          
H23      H      0.241600000000     0.586000000000     0.861000000000     0          
C24      C      0.170550000000     0.542980000000     0.834800000000     0          
H25      H      0.164800000000     0.555200000000     0.893900000000     0          
C26      C      0.140300000000     0.527880000000     0.779500000000     0          
C27      C      0.378020000000     0.509900000000     0.597900000000     0          
C28      C      0.335820000000     0.513200000000     0.629200000000     0          
C29      C      0.098520000000     0.531000000000     0.814100000000     0          
C30      C      0.187280000000     0.507360000000     0.661800000000     0          
C31      C      0.318900000000     0.482480000000     0.679600000000     0          
H32      H      0.333900000000     0.459700000000     0.693900000000     0          
C33      C      0.262900000000     0.451000000000     0.763500000000     0          
H34      H      0.246100000000     0.460500000000     0.814900000000     0          
H35      H      0.284700000000     0.435800000000     0.790200000000     0          
H36      H      0.247600000000     0.434300000000     0.720700000000     0          
C37      C      0.194000000000     0.487700000000     0.567300000000     0          
H38      H      0.199500000000     0.508200000000     0.520500000000     0          
H39      H      0.170700000000     0.472900000000     0.547700000000     0          
H40      H      0.216500000000     0.469800000000     0.571600000000     0          
O41      O      0.107960000000     0.958830000000     0.562400000000     0          
O42      O      0.990240000000     0.941000000000     0.536600000000     0          
O43      O      0.036200000000     0.986240000000     0.617800000000     0          
O44      O      0.407190000000     0.945730000000     0.883700000000     0          
O45      O      0.104800000000     0.020600000000     0.616900000000     0          
C46      C      0.224810000000     0.950850000000     0.637400000000     0          
O47      O      0.425900000000     0.993200000000     0.780200000000     0          
C48      C      0.248200000000     0.914500000000     0.614200000000     0          
H49      H      0.230400000000     0.893200000000     0.596500000000     0          
H50      H      0.263800000000     0.906600000000     0.669500000000     0          
H51      H      0.265800000000     0.920300000000     0.560900000000     0          
C52      C      0.282490000000     0.977540000000     0.717100000000     0          
C53      C      0.185960000000     0.953410000000     0.608000000000     0          
H54      H      0.174300000000     0.932400000000     0.573600000000     0          
C55      C      0.290830000000     0.959730000000     0.803600000000     0          
C56      C      0.351330000000     0.989920000000     0.693100000000     0          
H57      H      0.372000000000     0.000200000000     0.655300000000     0          
C58      C      0.241820000000     0.981520000000     0.687800000000     0          
C59      C      0.220000000000     0.014880000000     0.709000000000     0          
C60      C      0.260100000000     0.942500000000     0.868500000000     0          
H61      H      0.235000000000     0.954500000000     0.850900000000     0          
H62      H      0.266200000000     0.948900000000     0.934700000000     0          
H63      H      0.258400000000     0.914000000000     0.861000000000     0          
C64      C      0.329450000000     0.957020000000     0.834800000000     0          
H65      H      0.335200000000     0.944800000000     0.893900000000     0          
C66      C      0.359700000000     0.972120000000     0.779500000000     0          
C67      C      0.121980000000     0.990100000000     0.597900000000     0          
C68      C      0.164180000000     0.986800000000     0.629200000000     0          
C69      C      0.401480000000     0.969000000000     0.814100000000     0          
C70      C      0.312720000000     0.992640000000     0.661800000000     0          
C71      C      0.181100000000     0.017520000000     0.679600000000     0          
H72      H      0.166100000000     0.040300000000     0.693900000000     0          
C73      C      0.237100000000     0.049000000000     0.763500000000     0          
H74      H      0.253900000000     0.039500000000     0.814900000000     0          
H75      H      0.215300000000     0.064200000000     0.790200000000     0          
H76      H      0.252400000000     0.065700000000     0.720700000000     0          
C77      C      0.306000000000     0.012300000000     0.567300000000     0          
H78      H      0.300500000000     0.991800000000     0.520500000000     0          
H79      H      0.329300000000     0.027100000000     0.547700000000     0          
H80      H      0.283500000000     0.030200000000     0.571600000000     0          
O81      O      0.958830000000     0.392040000000     0.062400000000     0          
O82      O      0.941000000000     0.509760000000     0.036600000000     0          
O83      O      0.986240000000     0.463800000000     0.117800000000     0          
O84      O      0.945730000000     0.092810000000     0.383700000000     0          
O85      O      0.020600000000     0.395200000000     0.116900000000     0          
C86      C      0.950850000000     0.275190000000     0.137400000000     0          
O87      O      0.993200000000     0.074100000000     0.280200000000     0          
C88      C      0.914500000000     0.251800000000     0.114200000000     0          
H89      H      0.893200000000     0.269600000000     0.096500000000     0          
H90      H      0.906600000000     0.236200000000     0.169500000000     0          
H91      H      0.920300000000     0.234200000000     0.060900000000     0          
C92      C      0.977540000000     0.217510000000     0.217100000000     0          
C93      C      0.953410000000     0.314040000000     0.108000000000     0          
H94      H      0.932400000000     0.325700000000     0.073600000000     0          
C95      C      0.959730000000     0.209170000000     0.303600000000     0          
C96      C      0.989920000000     0.148670000000     0.193100000000     0          
H97      H      0.000200000000     0.128000000000     0.155300000000     0          
C98      C      0.981520000000     0.258180000000     0.187800000000     0          
C99      C      0.014880000000     0.280000000000     0.209000000000     0          
C100     C      0.942500000000     0.239900000000     0.368500000000     0          
H101     H      0.954500000000     0.265000000000     0.350900000000     0          
H102     H      0.948900000000     0.233800000000     0.434700000000     0          
H103     H      0.914000000000     0.241600000000     0.361000000000     0          
C104     C      0.957020000000     0.170550000000     0.334800000000     0          
H105     H      0.944800000000     0.164800000000     0.393900000000     0          
C106     C      0.972120000000     0.140300000000     0.279500000000     0          
C107     C      0.990100000000     0.378020000000     0.097900000000     0          
C108     C      0.986800000000     0.335820000000     0.129200000000     0          
C109     C      0.969000000000     0.098520000000     0.314100000000     0          
C110     C      0.992640000000     0.187280000000     0.161800000000     0          
C111     C      0.017520000000     0.318900000000     0.179600000000     0          
H112     H      0.040300000000     0.333900000000     0.193900000000     0          
C113     C      0.049000000000     0.262900000000     0.263500000000     0          
H114     H      0.039500000000     0.246100000000     0.314900000000     0          
H115     H      0.064200000000     0.284700000000     0.290200000000     0          
H116     H      0.065700000000     0.247600000000     0.220700000000     0          
C117     C      0.012300000000     0.194000000000     0.067300000000     0          
H118     H      0.991800000000     0.199500000000     0.020500000000     0          
H119     H      0.027100000000     0.170700000000     0.047700000000     0          
H120     H      0.030200000000     0.216500000000     0.071600000000     0          
O121     O      0.541170000000     0.107960000000     0.062400000000     0          
O122     O      0.559000000000     0.990240000000     0.036600000000     0          
O123     O      0.513760000000     0.036200000000     0.117800000000     0          
O124     O      0.554270000000     0.407190000000     0.383700000000     0          
O125     O      0.479400000000     0.104800000000     0.116900000000     0          
C126     C      0.549150000000     0.224810000000     0.137400000000     0          
O127     O      0.506800000000     0.425900000000     0.280200000000     0          
C128     C      0.585500000000     0.248200000000     0.114200000000     0          
H129     H      0.606800000000     0.230400000000     0.096500000000     0          
H130     H      0.593400000000     0.263800000000     0.169500000000     0          
H131     H      0.579700000000     0.265800000000     0.060900000000     0          
C132     C      0.522460000000     0.282490000000     0.217100000000     0          
C133     C      0.546590000000     0.185960000000     0.108000000000     0          
H134     H      0.567600000000     0.174300000000     0.073600000000     0          
C135     C      0.540270000000     0.290830000000     0.303600000000     0          
C136     C      0.510080000000     0.351330000000     0.193100000000     0          
H137     H      0.499800000000     0.372000000000     0.155300000000     0          
C138     C      0.518480000000     0.241820000000     0.187800000000     0          
C139     C      0.485120000000     0.220000000000     0.209000000000     0          
C140     C      0.557500000000     0.260100000000     0.368500000000     0          
H141     H      0.545500000000     0.235000000000     0.350900000000     0          
H142     H      0.551100000000     0.266200000000     0.434700000000     0          
H143     H      0.586000000000     0.258400000000     0.361000000000     0          
C144     C      0.542980000000     0.329450000000     0.334800000000     0          
H145     H      0.555200000000     0.335200000000     0.393900000000     0          
C146     C      0.527880000000     0.359700000000     0.279500000000     0          
C147     C      0.509900000000     0.121980000000     0.097900000000     0          
C148     C      0.513200000000     0.164180000000     0.129200000000     0          
C149     C      0.531000000000     0.401480000000     0.314100000000     0          
C150     C      0.507360000000     0.312720000000     0.161800000000     0          
C151     C      0.482480000000     0.181100000000     0.179600000000     0          
H152     H      0.459700000000     0.166100000000     0.193900000000     0          
C153     C      0.451000000000     0.237100000000     0.263500000000     0          
H154     H      0.460500000000     0.253900000000     0.314900000000     0          
H155     H      0.435800000000     0.215300000000     0.290200000000     0          
H156     H      0.434300000000     0.252400000000     0.220700000000     0          
C157     C      0.487700000000     0.306000000000     0.067300000000     0          
H158     H      0.508200000000     0.300500000000     0.020500000000     0          
H159     H      0.472900000000     0.329300000000     0.047700000000     0          
H160     H      0.469800000000     0.283500000000     0.071600000000     0          
O161     O      0.607960000000     0.041170000000     0.937600000000     0          
O162     O      0.490240000000     0.059000000000     0.963400000000     0          
O163     O      0.536200000000     0.013760000000     0.882200000000     0          
O164     O      0.907190000000     0.054270000000     0.616300000000     0          
O165     O      0.604800000000     0.979400000000     0.883100000000     0          
C166     C      0.724810000000     0.049150000000     0.862600000000     0          
O167     O      0.925900000000     0.006800000000     0.719800000000     0          
C168     C      0.748200000000     0.085500000000     0.885800000000     0          
H169     H      0.730400000000     0.106800000000     0.903500000000     0          
H170     H      0.763800000000     0.093400000000     0.830500000000     0          
H171     H      0.765800000000     0.079700000000     0.939100000000     0          
C172     C      0.782490000000     0.022460000000     0.782900000000     0          
C173     C      0.685960000000     0.046590000000     0.892000000000     0          
H174     H      0.674300000000     0.067600000000     0.926400000000     0          
C175     C      0.790830000000     0.040270000000     0.696400000000     0          
C176     C      0.851330000000     0.010080000000     0.806900000000     0          
H177     H      0.872000000000     0.999800000000     0.844700000000     0          
C178     C      0.741820000000     0.018480000000     0.812200000000     0          
C179     C      0.720000000000     0.985120000000     0.791000000000     0          
C180     C      0.760100000000     0.057500000000     0.631500000000     0          
H181     H      0.735000000000     0.045500000000     0.649100000000     0          
H182     H      0.766200000000     0.051100000000     0.565300000000     0          
H183     H      0.758400000000     0.086000000000     0.639000000000     0          
C184     C      0.829450000000     0.042980000000     0.665200000000     0          
H185     H      0.835200000000     0.055200000000     0.606100000000     0          
C186     C      0.859700000000     0.027880000000     0.720500000000     0          
C187     C      0.621980000000     0.009900000000     0.902100000000     0          
C188     C      0.664180000000     0.013200000000     0.870800000000     0          
C189     C      0.901480000000     0.031000000000     0.685900000000     0          
C190     C      0.812720000000     0.007360000000     0.838200000000     0          
C191     C      0.681100000000     0.982480000000     0.820400000000     0          
H192     H      0.666100000000     0.959700000000     0.806100000000     0          
C193     C      0.737100000000     0.951000000000     0.736500000000     0          
H194     H      0.753900000000     0.960500000000     0.685100000000     0          
H195     H      0.715300000000     0.935800000000     0.709800000000     0          
H196     H      0.752400000000     0.934300000000     0.779300000000     0          
C197     C      0.806000000000     0.987700000000     0.932700000000     0          
H198     H      0.800500000000     0.008200000000     0.979500000000     0          
H199     H      0.829300000000     0.972900000000     0.952300000000     0          
H200     H      0.783500000000     0.969800000000     0.928400000000     0          
O201     O      0.892040000000     0.458830000000     0.937600000000     0          
O202     O      0.009760000000     0.441000000000     0.963400000000     0          
O203     O      0.963800000000     0.486240000000     0.882200000000     0          
O204     O      0.592810000000     0.445730000000     0.616300000000     0          
O205     O      0.895200000000     0.520600000000     0.883100000000     0          
C206     C      0.775190000000     0.450850000000     0.862600000000     0          
O207     O      0.574100000000     0.493200000000     0.719800000000     0          
C208     C      0.751800000000     0.414500000000     0.885800000000     0          
H209     H      0.769600000000     0.393200000000     0.903500000000     0          
H210     H      0.736200000000     0.406600000000     0.830500000000     0          
H211     H      0.734200000000     0.420300000000     0.939100000000     0          
C212     C      0.717510000000     0.477540000000     0.782900000000     0          
C213     C      0.814040000000     0.453410000000     0.892000000000     0          
H214     H      0.825700000000     0.432400000000     0.926400000000     0          
C215     C      0.709170000000     0.459730000000     0.696400000000     0          
C216     C      0.648670000000     0.489920000000     0.806900000000     0          
H217     H      0.628000000000     0.500200000000     0.844700000000     0          
C218     C      0.758180000000     0.481520000000     0.812200000000     0          
C219     C      0.780000000000     0.514880000000     0.791000000000     0          
C220     C      0.739900000000     0.442500000000     0.631500000000     0          
H221     H      0.765000000000     0.454500000000     0.649100000000     0          
H222     H      0.733800000000     0.448900000000     0.565300000000     0          
H223     H      0.741600000000     0.414000000000     0.639000000000     0          
C224     C      0.670550000000     0.457020000000     0.665200000000     0          
H225     H      0.664800000000     0.444800000000     0.606100000000     0          
C226     C      0.640300000000     0.472120000000     0.720500000000     0          
C227     C      0.878020000000     0.490100000000     0.902100000000     0          
C228     C      0.835820000000     0.486800000000     0.870800000000     0          
C229     C      0.598520000000     0.469000000000     0.685900000000     0          
C230     C      0.687280000000     0.492640000000     0.838200000000     0          
C231     C      0.818900000000     0.517520000000     0.820400000000     0          
H232     H      0.833900000000     0.540300000000     0.806100000000     0          
C233     C      0.762900000000     0.549000000000     0.736500000000     0          
H234     H      0.746100000000     0.539500000000     0.685100000000     0          
H235     H      0.784700000000     0.564200000000     0.709800000000     0          
H236     H      0.747600000000     0.565700000000     0.779300000000     0          
C237     C      0.694000000000     0.512300000000     0.932700000000     0          
H238     H      0.699500000000     0.491800000000     0.979500000000     0          
H239     H      0.670700000000     0.527100000000     0.952300000000     0          
H240     H      0.716500000000     0.530200000000     0.928400000000     0          
O241     O      0.041170000000     0.892040000000     0.437600000000     0          
O242     O      0.059000000000     0.009760000000     0.463400000000     0          
O243     O      0.013760000000     0.963800000000     0.382200000000     0          
O244     O      0.054270000000     0.592810000000     0.116300000000     0          
O245     O      0.979400000000     0.895200000000     0.383100000000     0          
C246     C      0.049150000000     0.775190000000     0.362600000000     0          
O247     O      0.006800000000     0.574100000000     0.219800000000     0          
C248     C      0.085500000000     0.751800000000     0.385800000000     0          
H249     H      0.106800000000     0.769600000000     0.403500000000     0          
H250     H      0.093400000000     0.736200000000     0.330500000000     0          
H251     H      0.079700000000     0.734200000000     0.439100000000     0          
C252     C      0.022460000000     0.717510000000     0.282900000000     0          
C253     C      0.046590000000     0.814040000000     0.392000000000     0          
H254     H      0.067600000000     0.825700000000     0.426400000000     0          
C255     C      0.040270000000     0.709170000000     0.196400000000     0          
C256     C      0.010080000000     0.648670000000     0.306900000000     0          
H257     H      0.999800000000     0.628000000000     0.344700000000     0          
C258     C      0.018480000000     0.758180000000     0.312200000000     0          
C259     C      0.985120000000     0.780000000000     0.291000000000     0          
C260     C      0.057500000000     0.739900000000     0.131500000000     0          
H261     H      0.045500000000     0.765000000000     0.149100000000     0          
H262     H      0.051100000000     0.733800000000     0.065300000000     0          
H263     H      0.086000000000     0.741600000000     0.139000000000     0          
C264     C      0.042980000000     0.670550000000     0.165200000000     0          
H265     H      0.055200000000     0.664800000000     0.106100000000     0          
C266     C      0.027880000000     0.640300000000     0.220500000000     0          
C267     C      0.009900000000     0.878020000000     0.402100000000     0          
C268     C      0.013200000000     0.835820000000     0.370800000000     0          
C269     C      0.031000000000     0.598520000000     0.185900000000     0          
C270     C      0.007360000000     0.687280000000     0.338200000000     0          
C271     C      0.982480000000     0.818900000000     0.320400000000     0          
H272     H      0.959700000000     0.833900000000     0.306100000000     0          
C273     C      0.951000000000     0.762900000000     0.236500000000     0          
H274     H      0.960500000000     0.746100000000     0.185100000000     0          
H275     H      0.935800000000     0.784700000000     0.209800000000     0          
H276     H      0.934300000000     0.747600000000     0.279300000000     0          
C277     C      0.987700000000     0.694000000000     0.432700000000     0          
H278     H      0.008200000000     0.699500000000     0.479500000000     0          
H279     H      0.972900000000     0.670700000000     0.452300000000     0          
H280     H      0.969800000000     0.716500000000     0.428400000000     0          
O281     O      0.458830000000     0.607960000000     0.437600000000     0          
O282     O      0.441000000000     0.490240000000     0.463400000000     0          
O283     O      0.486240000000     0.536200000000     0.382200000000     0          
O284     O      0.445730000000     0.907190000000     0.116300000000     0          
O285     O      0.520600000000     0.604800000000     0.383100000000     0          
C286     C      0.450850000000     0.724810000000     0.362600000000     0          
O287     O      0.493200000000     0.925900000000     0.219800000000     0          
C288     C      0.414500000000     0.748200000000     0.385800000000     0          
H289     H      0.393200000000     0.730400000000     0.403500000000     0          
H290     H      0.406600000000     0.763800000000     0.330500000000     0          
H291     H      0.420300000000     0.765800000000     0.439100000000     0          
C292     C      0.477540000000     0.782490000000     0.282900000000     0          
C293     C      0.453410000000     0.685960000000     0.392000000000     0          
H294     H      0.432400000000     0.674300000000     0.426400000000     0          
C295     C      0.459730000000     0.790830000000     0.196400000000     0          
C296     C      0.489920000000     0.851330000000     0.306900000000     0          
H297     H      0.500200000000     0.872000000000     0.344700000000     0          
C298     C      0.481520000000     0.741820000000     0.312200000000     0          
C299     C      0.514880000000     0.720000000000     0.291000000000     0          
C300     C      0.442500000000     0.760100000000     0.131500000000     0          
H301     H      0.454500000000     0.735000000000     0.149100000000     0          
H302     H      0.448900000000     0.766200000000     0.065300000000     0          
H303     H      0.414000000000     0.758400000000     0.139000000000     0          
C304     C      0.457020000000     0.829450000000     0.165200000000     0          
H305     H      0.444800000000     0.835200000000     0.106100000000     0          
C306     C      0.472120000000     0.859700000000     0.220500000000     0          
C307     C      0.490100000000     0.621980000000     0.402100000000     0          
C308     C      0.486800000000     0.664180000000     0.370800000000     0          
C309     C      0.469000000000     0.901480000000     0.185900000000     0          
C310     C      0.492640000000     0.812720000000     0.338200000000     0          
C311     C      0.517520000000     0.681100000000     0.320400000000     0          
H312     H      0.540300000000     0.666100000000     0.306100000000     0          
C313     C      0.549000000000     0.737100000000     0.236500000000     0          
H314     H      0.539500000000     0.753900000000     0.185100000000     0          
H315     H      0.564200000000     0.715300000000     0.209800000000     0          
H316     H      0.565700000000     0.752400000000     0.279300000000     0          
C317     C      0.512300000000     0.806000000000     0.432700000000     0          
H318     H      0.491800000000     0.800500000000     0.479500000000     0          
H319     H      0.527100000000     0.829300000000     0.452300000000     0          
H320     H      0.530200000000     0.783500000000     0.428400000000     0          
O321     O      0.607960000000     0.458830000000     0.437600000000     0          
O322     O      0.490240000000     0.441000000000     0.463400000000     0          
O323     O      0.536200000000     0.486240000000     0.382200000000     0          
O324     O      0.907190000000     0.445730000000     0.116300000000     0          
O325     O      0.604800000000     0.520600000000     0.383100000000     0          
C326     C      0.724810000000     0.450850000000     0.362600000000     0          
O327     O      0.925900000000     0.493200000000     0.219800000000     0          
C328     C      0.748200000000     0.414500000000     0.385800000000     0          
H329     H      0.730400000000     0.393200000000     0.403500000000     0          
H330     H      0.763800000000     0.406600000000     0.330500000000     0          
H331     H      0.765800000000     0.420300000000     0.439100000000     0          
C332     C      0.782490000000     0.477540000000     0.282900000000     0          
C333     C      0.685960000000     0.453410000000     0.392000000000     0          
H334     H      0.674300000000     0.432400000000     0.426400000000     0          
C335     C      0.790830000000     0.459730000000     0.196400000000     0          
C336     C      0.851330000000     0.489920000000     0.306900000000     0          
H337     H      0.872000000000     0.500200000000     0.344700000000     0          
C338     C      0.741820000000     0.481520000000     0.312200000000     0          
C339     C      0.720000000000     0.514880000000     0.291000000000     0          
C340     C      0.760100000000     0.442500000000     0.131500000000     0          
H341     H      0.735000000000     0.454500000000     0.149100000000     0          
H342     H      0.766200000000     0.448900000000     0.065300000000     0          
H343     H      0.758400000000     0.414000000000     0.139000000000     0          
C344     C      0.829450000000     0.457020000000     0.165200000000     0          
H345     H      0.835200000000     0.444800000000     0.106100000000     0          
C346     C      0.859700000000     0.472120000000     0.220500000000     0          
C347     C      0.621980000000     0.490100000000     0.402100000000     0          
C348     C      0.664180000000     0.486800000000     0.370800000000     0          
C349     C      0.901480000000     0.469000000000     0.185900000000     0          
C350     C      0.812720000000     0.492640000000     0.338200000000     0          
C351     C      0.681100000000     0.517520000000     0.320400000000     0          
H352     H      0.666100000000     0.540300000000     0.306100000000     0          
C353     C      0.737100000000     0.549000000000     0.236500000000     0          
H354     H      0.753900000000     0.539500000000     0.185100000000     0          
H355     H      0.715300000000     0.564200000000     0.209800000000     0          
H356     H      0.752400000000     0.565700000000     0.279300000000     0          
C357     C      0.806000000000     0.512300000000     0.432700000000     0          
H358     H      0.800500000000     0.491800000000     0.479500000000     0          
H359     H      0.829300000000     0.527100000000     0.452300000000     0          
H360     H      0.783500000000     0.530200000000     0.428400000000     0          
O361     O      0.892040000000     0.041170000000     0.437600000000     0          
O362     O      0.009760000000     0.059000000000     0.463400000000     0          
O363     O      0.963800000000     0.013760000000     0.382200000000     0          
O364     O      0.592810000000     0.054270000000     0.116300000000     0          
O365     O      0.895200000000     0.979400000000     0.383100000000     0          
C366     C      0.775190000000     0.049150000000     0.362600000000     0          
O367     O      0.574100000000     0.006800000000     0.219800000000     0          
C368     C      0.751800000000     0.085500000000     0.385800000000     0          
H369     H      0.769600000000     0.106800000000     0.403500000000     0          
H370     H      0.736200000000     0.093400000000     0.330500000000     0          
H371     H      0.734200000000     0.079700000000     0.439100000000     0          
C372     C      0.717510000000     0.022460000000     0.282900000000     0          
C373     C      0.814040000000     0.046590000000     0.392000000000     0          
H374     H      0.825700000000     0.067600000000     0.426400000000     0          
C375     C      0.709170000000     0.040270000000     0.196400000000     0          
C376     C      0.648670000000     0.010080000000     0.306900000000     0          
H377     H      0.628000000000     0.999800000000     0.344700000000     0          
C378     C      0.758180000000     0.018480000000     0.312200000000     0          
C379     C      0.780000000000     0.985120000000     0.291000000000     0          
C380     C      0.739900000000     0.057500000000     0.131500000000     0          
H381     H      0.765000000000     0.045500000000     0.149100000000     0          
H382     H      0.733800000000     0.051100000000     0.065300000000     0          
H383     H      0.741600000000     0.086000000000     0.139000000000     0          
C384     C      0.670550000000     0.042980000000     0.165200000000     0          
H385     H      0.664800000000     0.055200000000     0.106100000000     0          
C386     C      0.640300000000     0.027880000000     0.220500000000     0          
C387     C      0.878020000000     0.009900000000     0.402100000000     0          
C388     C      0.835820000000     0.013200000000     0.370800000000     0          
C389     C      0.598520000000     0.031000000000     0.185900000000     0          
C390     C      0.687280000000     0.007360000000     0.338200000000     0          
C391     C      0.818900000000     0.982480000000     0.320400000000     0          
H392     H      0.833900000000     0.959700000000     0.306100000000     0          
C393     C      0.762900000000     0.951000000000     0.236500000000     0          
H394     H      0.746100000000     0.960500000000     0.185100000000     0          
H395     H      0.784700000000     0.935800000000     0.209800000000     0          
H396     H      0.747600000000     0.934300000000     0.279300000000     0          
C397     C      0.694000000000     0.987700000000     0.432700000000     0          
H398     H      0.699500000000     0.008200000000     0.479500000000     0          
H399     H      0.670700000000     0.972900000000     0.452300000000     0          
H400     H      0.716500000000     0.969800000000     0.428400000000     0          
O401     O      0.041170000000     0.607960000000     0.937600000000     0          
O402     O      0.059000000000     0.490240000000     0.963400000000     0          
O403     O      0.013760000000     0.536200000000     0.882200000000     0          
O404     O      0.054270000000     0.907190000000     0.616300000000     0          
O405     O      0.979400000000     0.604800000000     0.883100000000     0          
C406     C      0.049150000000     0.724810000000     0.862600000000     0          
O407     O      0.006800000000     0.925900000000     0.719800000000     0          
C408     C      0.085500000000     0.748200000000     0.885800000000     0          
H409     H      0.106800000000     0.730400000000     0.903500000000     0          
H410     H      0.093400000000     0.763800000000     0.830500000000     0          
H411     H      0.079700000000     0.765800000000     0.939100000000     0          
C412     C      0.022460000000     0.782490000000     0.782900000000     0          
C413     C      0.046590000000     0.685960000000     0.892000000000     0          
H414     H      0.067600000000     0.674300000000     0.926400000000     0          
C415     C      0.040270000000     0.790830000000     0.696400000000     0          
C416     C      0.010080000000     0.851330000000     0.806900000000     0          
H417     H      0.999800000000     0.872000000000     0.844700000000     0          
C418     C      0.018480000000     0.741820000000     0.812200000000     0          
C419     C      0.985120000000     0.720000000000     0.791000000000     0          
C420     C      0.057500000000     0.760100000000     0.631500000000     0          
H421     H      0.045500000000     0.735000000000     0.649100000000     0          
H422     H      0.051100000000     0.766200000000     0.565300000000     0          
H423     H      0.086000000000     0.758400000000     0.639000000000     0          
C424     C      0.042980000000     0.829450000000     0.665200000000     0          
H425     H      0.055200000000     0.835200000000     0.606100000000     0          
C426     C      0.027880000000     0.859700000000     0.720500000000     0          
C427     C      0.009900000000     0.621980000000     0.902100000000     0          
C428     C      0.013200000000     0.664180000000     0.870800000000     0          
C429     C      0.031000000000     0.901480000000     0.685900000000     0          
C430     C      0.007360000000     0.812720000000     0.838200000000     0          
C431     C      0.982480000000     0.681100000000     0.820400000000     0          
H432     H      0.959700000000     0.666100000000     0.806100000000     0          
C433     C      0.951000000000     0.737100000000     0.736500000000     0          
H434     H      0.960500000000     0.753900000000     0.685100000000     0          
H435     H      0.935800000000     0.715300000000     0.709800000000     0          
H436     H      0.934300000000     0.752400000000     0.779300000000     0          
C437     C      0.987700000000     0.806000000000     0.932700000000     0          
H438     H      0.008200000000     0.800500000000     0.979500000000     0          
H439     H      0.972900000000     0.829300000000     0.952300000000     0          
H440     H      0.969800000000     0.783500000000     0.928400000000     0          
O441     O      0.458830000000     0.892040000000     0.937600000000     0          
O442     O      0.441000000000     0.009760000000     0.963400000000     0          
O443     O      0.486240000000     0.963800000000     0.882200000000     0          
O444     O      0.445730000000     0.592810000000     0.616300000000     0          
O445     O      0.520600000000     0.895200000000     0.883100000000     0          
C446     C      0.450850000000     0.775190000000     0.862600000000     0          
O447     O      0.493200000000     0.574100000000     0.719800000000     0          
C448     C      0.414500000000     0.751800000000     0.885800000000     0          
H449     H      0.393200000000     0.769600000000     0.903500000000     0          
H450     H      0.406600000000     0.736200000000     0.830500000000     0          
H451     H      0.420300000000     0.734200000000     0.939100000000     0          
C452     C      0.477540000000     0.717510000000     0.782900000000     0          
C453     C      0.453410000000     0.814040000000     0.892000000000     0          
H454     H      0.432400000000     0.825700000000     0.926400000000     0          
C455     C      0.459730000000     0.709170000000     0.696400000000     0          
C456     C      0.489920000000     0.648670000000     0.806900000000     0          
H457     H      0.500200000000     0.628000000000     0.844700000000     0          
C458     C      0.481520000000     0.758180000000     0.812200000000     0          
C459     C      0.514880000000     0.780000000000     0.791000000000     0          
C460     C      0.442500000000     0.739900000000     0.631500000000     0          
H461     H      0.454500000000     0.765000000000     0.649100000000     0          
H462     H      0.448900000000     0.733800000000     0.565300000000     0          
H463     H      0.414000000000     0.741600000000     0.639000000000     0          
C464     C      0.457020000000     0.670550000000     0.665200000000     0          
H465     H      0.444800000000     0.664800000000     0.606100000000     0          
C466     C      0.472120000000     0.640300000000     0.720500000000     0          
C467     C      0.490100000000     0.878020000000     0.902100000000     0          
C468     C      0.486800000000     0.835820000000     0.870800000000     0          
C469     C      0.469000000000     0.598520000000     0.685900000000     0          
C470     C      0.492640000000     0.687280000000     0.838200000000     0          
C471     C      0.517520000000     0.818900000000     0.820400000000     0          
H472     H      0.540300000000     0.833900000000     0.806100000000     0          
C473     C      0.549000000000     0.762900000000     0.736500000000     0          
H474     H      0.539500000000     0.746100000000     0.685100000000     0          
H475     H      0.564200000000     0.784700000000     0.709800000000     0          
H476     H      0.565700000000     0.747600000000     0.779300000000     0          
C477     C      0.512300000000     0.694000000000     0.932700000000     0          
H478     H      0.491800000000     0.699500000000     0.979500000000     0          
H479     H      0.527100000000     0.670700000000     0.952300000000     0          
H480     H      0.530200000000     0.716500000000     0.928400000000     0          
O481     O      0.392040000000     0.958830000000     0.062400000000     0          
O482     O      0.509760000000     0.941000000000     0.036600000000     0          
O483     O      0.463800000000     0.986240000000     0.117800000000     0          
O484     O      0.092810000000     0.945730000000     0.383700000000     0          
O485     O      0.395200000000     0.020600000000     0.116900000000     0          
C486     C      0.275190000000     0.950850000000     0.137400000000     0          
O487     O      0.074100000000     0.993200000000     0.280200000000     0          
C488     C      0.251800000000     0.914500000000     0.114200000000     0          
H489     H      0.269600000000     0.893200000000     0.096500000000     0          
H490     H      0.236200000000     0.906600000000     0.169500000000     0          
H491     H      0.234200000000     0.920300000000     0.060900000000     0          
C492     C      0.217510000000     0.977540000000     0.217100000000     0          
C493     C      0.314040000000     0.953410000000     0.108000000000     0          
H494     H      0.325700000000     0.932400000000     0.073600000000     0          
C495     C      0.209170000000     0.959730000000     0.303600000000     0          
C496     C      0.148670000000     0.989920000000     0.193100000000     0          
H497     H      0.128000000000     0.000200000000     0.155300000000     0          
C498     C      0.258180000000     0.981520000000     0.187800000000     0          
C499     C      0.280000000000     0.014880000000     0.209000000000     0          
C500     C      0.239900000000     0.942500000000     0.368500000000     0          
H501     H      0.265000000000     0.954500000000     0.350900000000     0          
H502     H      0.233800000000     0.948900000000     0.434700000000     0          
H503     H      0.241600000000     0.914000000000     0.361000000000     0          
C504     C      0.170550000000     0.957020000000     0.334800000000     0          
H505     H      0.164800000000     0.944800000000     0.393900000000     0          
C506     C      0.140300000000     0.972120000000     0.279500000000     0          
C507     C      0.378020000000     0.990100000000     0.097900000000     0          
C508     C      0.335820000000     0.986800000000     0.129200000000     0          
C509     C      0.098520000000     0.969000000000     0.314100000000     0          
C510     C      0.187280000000     0.992640000000     0.161800000000     0          
C511     C      0.318900000000     0.017520000000     0.179600000000     0          
H512     H      0.333900000000     0.040300000000     0.193900000000     0          
C513     C      0.262900000000     0.049000000000     0.263500000000     0          
H514     H      0.246100000000     0.039500000000     0.314900000000     0          
H515     H      0.284700000000     0.064200000000     0.290200000000     0          
H516     H      0.247600000000     0.065700000000     0.220700000000     0          
C517     C      0.194000000000     0.012300000000     0.067300000000     0          
H518     H      0.199500000000     0.991800000000     0.020500000000     0          
H519     H      0.170700000000     0.027100000000     0.047700000000     0          
H520     H      0.216500000000     0.030200000000     0.071600000000     0          
O521     O      0.107960000000     0.541170000000     0.062400000000     0          
O522     O      0.990240000000     0.559000000000     0.036600000000     0          
O523     O      0.036200000000     0.513760000000     0.117800000000     0          
O524     O      0.407190000000     0.554270000000     0.383700000000     0          
O525     O      0.104800000000     0.479400000000     0.116900000000     0          
C526     C      0.224810000000     0.549150000000     0.137400000000     0          
O527     O      0.425900000000     0.506800000000     0.280200000000     0          
C528     C      0.248200000000     0.585500000000     0.114200000000     0          
H529     H      0.230400000000     0.606800000000     0.096500000000     0          
H530     H      0.263800000000     0.593400000000     0.169500000000     0          
H531     H      0.265800000000     0.579700000000     0.060900000000     0          
C532     C      0.282490000000     0.522460000000     0.217100000000     0          
C533     C      0.185960000000     0.546590000000     0.108000000000     0          
H534     H      0.174300000000     0.567600000000     0.073600000000     0          
C535     C      0.290830000000     0.540270000000     0.303600000000     0          
C536     C      0.351330000000     0.510080000000     0.193100000000     0          
H537     H      0.372000000000     0.499800000000     0.155300000000     0          
C538     C      0.241820000000     0.518480000000     0.187800000000     0          
C539     C      0.220000000000     0.485120000000     0.209000000000     0          
C540     C      0.260100000000     0.557500000000     0.368500000000     0          
H541     H      0.235000000000     0.545500000000     0.350900000000     0          
H542     H      0.266200000000     0.551100000000     0.434700000000     0          
H543     H      0.258400000000     0.586000000000     0.361000000000     0          
C544     C      0.329450000000     0.542980000000     0.334800000000     0          
H545     H      0.335200000000     0.555200000000     0.393900000000     0          
C546     C      0.359700000000     0.527880000000     0.279500000000     0          
C547     C      0.121980000000     0.509900000000     0.097900000000     0          
C548     C      0.164180000000     0.513200000000     0.129200000000     0          
C549     C      0.401480000000     0.531000000000     0.314100000000     0          
C550     C      0.312720000000     0.507360000000     0.161800000000     0          
C551     C      0.181100000000     0.482480000000     0.179600000000     0          
H552     H      0.166100000000     0.459700000000     0.193900000000     0          
C553     C      0.237100000000     0.451000000000     0.263500000000     0          
H554     H      0.253900000000     0.460500000000     0.314900000000     0          
H555     H      0.215300000000     0.435800000000     0.290200000000     0          
H556     H      0.252400000000     0.434300000000     0.220700000000     0          
C557     C      0.306000000000     0.487700000000     0.067300000000     0          
H558     H      0.300500000000     0.508200000000     0.020500000000     0          
H559     H      0.329300000000     0.472900000000     0.047700000000     0          
H560     H      0.283500000000     0.469800000000     0.071600000000     0          
O561     O      0.958830000000     0.107960000000     0.562400000000     0          
O562     O      0.941000000000     0.990240000000     0.536600000000     0          
O563     O      0.986240000000     0.036200000000     0.617800000000     0          
O564     O      0.945730000000     0.407190000000     0.883700000000     0          
O565     O      0.020600000000     0.104800000000     0.616900000000     0          
C566     C      0.950850000000     0.224810000000     0.637400000000     0          
O567     O      0.993200000000     0.425900000000     0.780200000000     0          
C568     C      0.914500000000     0.248200000000     0.614200000000     0          
H569     H      0.893200000000     0.230400000000     0.596500000000     0          
H570     H      0.906600000000     0.263800000000     0.669500000000     0          
H571     H      0.920300000000     0.265800000000     0.560900000000     0          
C572     C      0.977540000000     0.282490000000     0.717100000000     0          
C573     C      0.953410000000     0.185960000000     0.608000000000     0          
H574     H      0.932400000000     0.174300000000     0.573600000000     0          
C575     C      0.959730000000     0.290830000000     0.803600000000     0          
C576     C      0.989920000000     0.351330000000     0.693100000000     0          
H577     H      0.000200000000     0.372000000000     0.655300000000     0          
C578     C      0.981520000000     0.241820000000     0.687800000000     0          
C579     C      0.014880000000     0.220000000000     0.709000000000     0          
C580     C      0.942500000000     0.260100000000     0.868500000000     0          
H581     H      0.954500000000     0.235000000000     0.850900000000     0          
H582     H      0.948900000000     0.266200000000     0.934700000000     0          
H583     H      0.914000000000     0.258400000000     0.861000000000     0          
C584     C      0.957020000000     0.329450000000     0.834800000000     0          
H585     H      0.944800000000     0.335200000000     0.893900000000     0          
C586     C      0.972120000000     0.359700000000     0.779500000000     0          
C587     C      0.990100000000     0.121980000000     0.597900000000     0          
C588     C      0.986800000000     0.164180000000     0.629200000000     0          
C589     C      0.969000000000     0.401480000000     0.814100000000     0          
C590     C      0.992640000000     0.312720000000     0.661800000000     0          
C591     C      0.017520000000     0.181100000000     0.679600000000     0          
H592     H      0.040300000000     0.166100000000     0.693900000000     0          
C593     C      0.049000000000     0.237100000000     0.763500000000     0          
H594     H      0.039500000000     0.253900000000     0.814900000000     0          
H595     H      0.064200000000     0.215300000000     0.790200000000     0          
H596     H      0.065700000000     0.252400000000     0.720700000000     0          
C597     C      0.012300000000     0.306000000000     0.567300000000     0          
H598     H      0.991800000000     0.300500000000     0.520500000000     0          
H599     H      0.027100000000     0.329300000000     0.547700000000     0          
H600     H      0.030200000000     0.283500000000     0.571600000000     0          
O601     O      0.541170000000     0.392040000000     0.562400000000     0          
O602     O      0.559000000000     0.509760000000     0.536600000000     0          
O603     O      0.513760000000     0.463800000000     0.617800000000     0          
O604     O      0.554270000000     0.092810000000     0.883700000000     0          
O605     O      0.479400000000     0.395200000000     0.616900000000     0          
C606     C      0.549150000000     0.275190000000     0.637400000000     0          
O607     O      0.506800000000     0.074100000000     0.780200000000     0          
C608     C      0.585500000000     0.251800000000     0.614200000000     0          
H609     H      0.606800000000     0.269600000000     0.596500000000     0          
H610     H      0.593400000000     0.236200000000     0.669500000000     0          
H611     H      0.579700000000     0.234200000000     0.560900000000     0          
C612     C      0.522460000000     0.217510000000     0.717100000000     0          
C613     C      0.546590000000     0.314040000000     0.608000000000     0          
H614     H      0.567600000000     0.325700000000     0.573600000000     0          
C615     C      0.540270000000     0.209170000000     0.803600000000     0          
C616     C      0.510080000000     0.148670000000     0.693100000000     0          
H617     H      0.499800000000     0.128000000000     0.655300000000     0          
C618     C      0.518480000000     0.258180000000     0.687800000000     0          
C619     C      0.485120000000     0.280000000000     0.709000000000     0          
C620     C      0.557500000000     0.239900000000     0.868500000000     0          
H621     H      0.545500000000     0.265000000000     0.850900000000     0          
H622     H      0.551100000000     0.233800000000     0.934700000000     0          
H623     H      0.586000000000     0.241600000000     0.861000000000     0          
C624     C      0.542980000000     0.170550000000     0.834800000000     0          
H625     H      0.555200000000     0.164800000000     0.893900000000     0          
C626     C      0.527880000000     0.140300000000     0.779500000000     0          
C627     C      0.509900000000     0.378020000000     0.597900000000     0          
C628     C      0.513200000000     0.335820000000     0.629200000000     0          
C629     C      0.531000000000     0.098520000000     0.814100000000     0          
C630     C      0.507360000000     0.187280000000     0.661800000000     0          
C631     C      0.482480000000     0.318900000000     0.679600000000     0          
H632     H      0.459700000000     0.333900000000     0.693900000000     0          
C633     C      0.451000000000     0.262900000000     0.763500000000     0          
H634     H      0.460500000000     0.246100000000     0.814900000000     0          
H635     H      0.435800000000     0.284700000000     0.790200000000     0          
H636     H      0.434300000000     0.247600000000     0.720700000000     0          
C637     C      0.487700000000     0.194000000000     0.567300000000     0          
H638     H      0.508200000000     0.199500000000     0.520500000000     0          
H639     H      0.472900000000     0.170700000000     0.547700000000     0          
H640     H      0.469800000000     0.216500000000     0.571600000000     0          
Zr641    Zr     0.449010000000     0.550990000000     0.500000000000     0          
Zr642    Zr     0.050990000000     0.949010000000     0.500000000000     0          
Zr643    Zr     0.949010000000     0.449010000000     0.000000000000     0          
Zr644    Zr     0.550990000000     0.050990000000     0.000000000000     0          
Zr645    Zr     0.550990000000     0.449010000000     0.500000000000     0          
Zr646    Zr     0.949010000000     0.050990000000     0.500000000000     0          
Zr647    Zr     0.050990000000     0.550990000000     0.000000000000     0          
Zr648    Zr     0.449010000000     0.949010000000     0.000000000000     0          
Zr649    Zr     0.523680000000     0.523680000000     0.656390000000     0          
Zr650    Zr     0.454570000000     0.454570000000     0.582490000000     0          
O651     O      0.412300000000     0.412300000000     0.522000000000     0          
O652     O      0.446800000000     0.446800000000     0.736900000000     0          
O653     O      0.570500000000     0.570500000000     0.680200000000     0          
O654     O      0.502500000000     0.502500000000     0.800800000000     0          
Zr655    Zr     0.976320000000     0.976320000000     0.656390000000     0          
Zr656    Zr     0.045430000000     0.045430000000     0.582490000000     0          
O657     O      0.087700000000     0.087700000000     0.522000000000     0          
O658     O      0.053200000000     0.053200000000     0.736900000000     0          
O659     O      0.929500000000     0.929500000000     0.680200000000     0          
O660     O      0.997500000000     0.997500000000     0.800800000000     0          
Zr661    Zr     0.976320000000     0.523680000000     0.156390000000     0          
Zr662    Zr     0.045430000000     0.454570000000     0.082490000000     0          
O663     O      0.087700000000     0.412300000000     0.022000000000     0          
O664     O      0.053200000000     0.446800000000     0.236900000000     0          
O665     O      0.929500000000     0.570500000000     0.180200000000     0          
O666     O      0.997500000000     0.502500000000     0.300800000000     0          
Zr667    Zr     0.523680000000     0.976320000000     0.156390000000     0          
Zr668    Zr     0.454570000000     0.045430000000     0.082490000000     0          
O669     O      0.412300000000     0.087700000000     0.022000000000     0          
O670     O      0.446800000000     0.053200000000     0.236900000000     0          
O671     O      0.570500000000     0.929500000000     0.180200000000     0          
O672     O      0.502500000000     0.997500000000     0.300800000000     0          
Zr673    Zr     0.476320000000     0.023680000000     0.843610000000     0          
Zr674    Zr     0.545430000000     0.954570000000     0.917510000000     0          
O675     O      0.587700000000     0.912300000000     0.978000000000     0          
O676     O      0.553200000000     0.946800000000     0.763100000000     0          
O677     O      0.429500000000     0.070500000000     0.819800000000     0          
O678     O      0.497500000000     0.002500000000     0.699200000000     0          
Zr679    Zr     0.023680000000     0.476320000000     0.843610000000     0          
Zr680    Zr     0.954570000000     0.545430000000     0.917510000000     0          
O681     O      0.912300000000     0.587700000000     0.978000000000     0          
O682     O      0.946800000000     0.553200000000     0.763100000000     0          
O683     O      0.070500000000     0.429500000000     0.819800000000     0          
O684     O      0.002500000000     0.497500000000     0.699200000000     0          
Zr685    Zr     0.023680000000     0.023680000000     0.343610000000     0          
Zr686    Zr     0.954570000000     0.954570000000     0.417510000000     0          
O687     O      0.912300000000     0.912300000000     0.478000000000     0          
O688     O      0.946800000000     0.946800000000     0.263100000000     0          
O689     O      0.070500000000     0.070500000000     0.319800000000     0          
O690     O      0.002500000000     0.002500000000     0.199200000000     0          
Zr691    Zr     0.476320000000     0.476320000000     0.343610000000     0          
Zr692    Zr     0.545430000000     0.545430000000     0.417510000000     0          
O693     O      0.587700000000     0.587700000000     0.478000000000     0          
O694     O      0.553200000000     0.553200000000     0.263100000000     0          
O695     O      0.429500000000     0.429500000000     0.319800000000     0          
O696     O      0.497500000000     0.497500000000     0.199200000000     0          


