data_IXETEM

_audit_creation_method RASPA-1.0
_audit_creation_date 2020-11-2
_audit_author_name 'Rocio Bueno-Perez'

_cell_length_a    44.856
_cell_length_b    44.856
_cell_length_c    44.856
_cell_angle_alpha 90
_cell_angle_beta  90
_cell_angle_gamma 90
_cell_volume      90253

_symmetry_cell_setting          triclinic
_symmetry_space_group_name_Hall 'P 1'
_symmetry_space_group_name_H-M  'P 1'
_symmetry_Int_Tables_number     1

_symmetry_equiv_pos_as_xyz 'x,y,z'

loop_
_atom_site_label
_atom_site_type_symbol
_atom_site_fract_x
_atom_site_fract_y
_atom_site_fract_z
_atom_site_charge
O1       O      0.500960000000     0.543490000000     0.421190000000     0          
O2       O      0.459330000000     0.500410000000     0.416890000000     0          
C3       C      0.502470000000     0.585490000000     0.376980000000     0          
H4       H      0.504200000000     0.565100000000     0.371400000000     0          
C5       C      0.502460000000     0.607450000000     0.355120000000     0          
H6       H      0.504200000000     0.601900000000     0.334800000000     0          
C7       C      0.516240000000     0.656680000000     0.313610000000     0          
H8       H      0.527500000000     0.639000000000     0.310700000000     0          
C9       C      0.516370000000     0.678470000000     0.291580000000     0          
H10      H      0.527600000000     0.675600000000     0.273900000000     0          
H11      H      0.389000000000     0.512600000000     0.409000000000     0          
H12      H      0.397300000000     0.478000000000     0.405700000000     0          
H13      H      0.413900000000     0.502300000000     0.385600000000     0          
O14      O      0.500960000000     0.043490000000     0.921190000000     0          
O15      O      0.459330000000     0.000410000000     0.916890000000     0          
C16      C      0.502470000000     0.085490000000     0.876980000000     0          
H17      H      0.504200000000     0.065100000000     0.871400000000     0          
C18      C      0.502460000000     0.107450000000     0.855120000000     0          
H19      H      0.504200000000     0.101900000000     0.834800000000     0          
C20      C      0.516240000000     0.156680000000     0.813610000000     0          
H21      H      0.527500000000     0.139000000000     0.810700000000     0          
C22      C      0.516370000000     0.178470000000     0.791580000000     0          
H23      H      0.527600000000     0.175600000000     0.773900000000     0          
O24      O      0.000960000000     0.543490000000     0.921190000000     0          
O25      O      0.959330000000     0.500410000000     0.916890000000     0          
C26      C      0.002470000000     0.585490000000     0.876980000000     0          
H27      H      0.004200000000     0.565100000000     0.871400000000     0          
C28      C      0.002460000000     0.607450000000     0.855120000000     0          
H29      H      0.004200000000     0.601900000000     0.834800000000     0          
C30      C      0.016240000000     0.656680000000     0.813610000000     0          
H31      H      0.027500000000     0.639000000000     0.810700000000     0          
C32      C      0.016370000000     0.678470000000     0.791580000000     0          
H33      H      0.027600000000     0.675600000000     0.773900000000     0          
H34      H      0.889000000000     0.512600000000     0.909000000000     0          
H35      H      0.897300000000     0.478000000000     0.905700000000     0          
H36      H      0.913900000000     0.502300000000     0.885600000000     0          
O37      O      0.000960000000     0.043490000000     0.421190000000     0          
O38      O      0.959330000000     0.000410000000     0.416890000000     0          
C39      C      0.002470000000     0.085490000000     0.376980000000     0          
H40      H      0.004200000000     0.065100000000     0.371400000000     0          
C41      C      0.002460000000     0.107450000000     0.355120000000     0          
H42      H      0.004200000000     0.101900000000     0.334800000000     0          
C43      C      0.016240000000     0.156680000000     0.313610000000     0          
H44      H      0.027500000000     0.139000000000     0.310700000000     0          
C45      C      0.016370000000     0.178470000000     0.291580000000     0          
H46      H      0.027600000000     0.175600000000     0.273900000000     0          
H47      H      0.889000000000     0.012600000000     0.409000000000     0          
H48      H      0.897300000000     0.978000000000     0.405700000000     0          
H49      H      0.913900000000     0.002300000000     0.385600000000     0          
O50      O      0.249040000000     0.706510000000     0.921190000000     0          
O51      O      0.290670000000     0.749590000000     0.916890000000     0          
C52      C      0.247530000000     0.664510000000     0.876980000000     0          
H53      H      0.245800000000     0.684900000000     0.871400000000     0          
C54      C      0.247540000000     0.642550000000     0.855120000000     0          
H55      H      0.245800000000     0.648100000000     0.834800000000     0          
C56      C      0.233760000000     0.593320000000     0.813610000000     0          
H57      H      0.222500000000     0.611000000000     0.810700000000     0          
C58      C      0.233630000000     0.571530000000     0.791580000000     0          
H59      H      0.222400000000     0.574400000000     0.773900000000     0          
H60      H      0.361000000000     0.737400000000     0.909000000000     0          
H61      H      0.352700000000     0.772000000000     0.905700000000     0          
H62      H      0.336100000000     0.747700000000     0.885600000000     0          
O63      O      0.249040000000     0.206510000000     0.421190000000     0          
O64      O      0.290670000000     0.249590000000     0.416890000000     0          
C65      C      0.247530000000     0.164510000000     0.376980000000     0          
H66      H      0.245800000000     0.184900000000     0.371400000000     0          
C67      C      0.247540000000     0.142550000000     0.355120000000     0          
H68      H      0.245800000000     0.148100000000     0.334800000000     0          
C69      C      0.233760000000     0.093320000000     0.313610000000     0          
H70      H      0.222500000000     0.111000000000     0.310700000000     0          
C71      C      0.233630000000     0.071530000000     0.291580000000     0          
H72      H      0.222400000000     0.074400000000     0.273900000000     0          
H73      H      0.361000000000     0.237400000000     0.409000000000     0          
H74      H      0.352700000000     0.272000000000     0.405700000000     0          
H75      H      0.336100000000     0.247700000000     0.385600000000     0          
O76      O      0.749040000000     0.706510000000     0.421190000000     0          
O77      O      0.790670000000     0.749590000000     0.416890000000     0          
C78      C      0.747530000000     0.664510000000     0.376980000000     0          
H79      H      0.745800000000     0.684900000000     0.371400000000     0          
C80      C      0.747540000000     0.642550000000     0.355120000000     0          
H81      H      0.745800000000     0.648100000000     0.334800000000     0          
C82      C      0.733760000000     0.593320000000     0.313610000000     0          
H83      H      0.722500000000     0.611000000000     0.310700000000     0          
C84      C      0.733630000000     0.571530000000     0.291580000000     0          
H85      H      0.722400000000     0.574400000000     0.273900000000     0          
H86      H      0.861000000000     0.737400000000     0.409000000000     0          
H87      H      0.852700000000     0.772000000000     0.405700000000     0          
H88      H      0.836100000000     0.747700000000     0.385600000000     0          
O89      O      0.749040000000     0.206510000000     0.921190000000     0          
O90      O      0.790670000000     0.249590000000     0.916890000000     0          
C91      C      0.747530000000     0.164510000000     0.876980000000     0          
H92      H      0.745800000000     0.184900000000     0.871400000000     0          
C93      C      0.747540000000     0.142550000000     0.855120000000     0          
H94      H      0.745800000000     0.148100000000     0.834800000000     0          
C95      C      0.733760000000     0.093320000000     0.813610000000     0          
H96      H      0.722500000000     0.111000000000     0.810700000000     0          
C97      C      0.733630000000     0.071530000000     0.791580000000     0          
H98      H      0.722400000000     0.074400000000     0.773900000000     0          
O99      O      0.749040000000     0.043490000000     0.328810000000     0          
O100     O      0.790670000000     0.000410000000     0.333110000000     0          
C101     C      0.747530000000     0.085490000000     0.373020000000     0          
H102     H      0.745800000000     0.065100000000     0.378600000000     0          
C103     C      0.747540000000     0.107450000000     0.394880000000     0          
H104     H      0.745800000000     0.101900000000     0.415200000000     0          
C105     C      0.733760000000     0.156680000000     0.436390000000     0          
H106     H      0.722500000000     0.139000000000     0.439300000000     0          
C107     C      0.733630000000     0.178470000000     0.458420000000     0          
H108     H      0.722400000000     0.175600000000     0.476100000000     0          
H109     H      0.861000000000     0.012600000000     0.341000000000     0          
H110     H      0.852700000000     0.978000000000     0.344300000000     0          
H111     H      0.836100000000     0.002300000000     0.364400000000     0          
O112     O      0.749040000000     0.543490000000     0.828810000000     0          
O113     O      0.790670000000     0.500410000000     0.833110000000     0          
C114     C      0.747530000000     0.585490000000     0.873020000000     0          
H115     H      0.745800000000     0.565100000000     0.878600000000     0          
C116     C      0.747540000000     0.607450000000     0.894880000000     0          
H117     H      0.745800000000     0.601900000000     0.915200000000     0          
C118     C      0.733760000000     0.656680000000     0.936390000000     0          
H119     H      0.722500000000     0.639000000000     0.939300000000     0          
C120     C      0.733630000000     0.678470000000     0.958420000000     0          
H121     H      0.722400000000     0.675600000000     0.976100000000     0          
H122     H      0.861000000000     0.512600000000     0.841000000000     0          
H123     H      0.852700000000     0.478000000000     0.844300000000     0          
H124     H      0.836100000000     0.502300000000     0.864400000000     0          
O125     O      0.249040000000     0.043490000000     0.828810000000     0          
O126     O      0.290670000000     0.000410000000     0.833110000000     0          
C127     C      0.247530000000     0.085490000000     0.873020000000     0          
H128     H      0.245800000000     0.065100000000     0.878600000000     0          
C129     C      0.247540000000     0.107450000000     0.894880000000     0          
H130     H      0.245800000000     0.101900000000     0.915200000000     0          
C131     C      0.233760000000     0.156680000000     0.936390000000     0          
H132     H      0.222500000000     0.139000000000     0.939300000000     0          
C133     C      0.233630000000     0.178470000000     0.958420000000     0          
H134     H      0.222400000000     0.175600000000     0.976100000000     0          
H135     H      0.361000000000     0.012600000000     0.841000000000     0          
H136     H      0.352700000000     0.978000000000     0.844300000000     0          
H137     H      0.336100000000     0.002300000000     0.864400000000     0          
O138     O      0.249040000000     0.543490000000     0.328810000000     0          
O139     O      0.290670000000     0.500410000000     0.333110000000     0          
C140     C      0.247530000000     0.585490000000     0.373020000000     0          
H141     H      0.245800000000     0.565100000000     0.378600000000     0          
C142     C      0.247540000000     0.607450000000     0.394880000000     0          
H143     H      0.245800000000     0.601900000000     0.415200000000     0          
C144     C      0.233760000000     0.656680000000     0.436390000000     0          
H145     H      0.222500000000     0.639000000000     0.439300000000     0          
C146     C      0.233630000000     0.678470000000     0.458420000000     0          
H147     H      0.222400000000     0.675600000000     0.476100000000     0          
H148     H      0.361000000000     0.512600000000     0.341000000000     0          
H149     H      0.352700000000     0.478000000000     0.344300000000     0          
H150     H      0.336100000000     0.502300000000     0.364400000000     0          
O151     O      0.000960000000     0.206510000000     0.828810000000     0          
O152     O      0.959330000000     0.249590000000     0.833110000000     0          
C153     C      0.002470000000     0.164510000000     0.873020000000     0          
H154     H      0.004200000000     0.184900000000     0.878600000000     0          
C155     C      0.002460000000     0.142550000000     0.894880000000     0          
H156     H      0.004200000000     0.148100000000     0.915200000000     0          
C157     C      0.016240000000     0.093320000000     0.936390000000     0          
H158     H      0.027500000000     0.111000000000     0.939300000000     0          
C159     C      0.016370000000     0.071530000000     0.958420000000     0          
H160     H      0.027600000000     0.074400000000     0.976100000000     0          
H161     H      0.889000000000     0.237400000000     0.841000000000     0          
H162     H      0.897300000000     0.272000000000     0.844300000000     0          
H163     H      0.913900000000     0.247700000000     0.864400000000     0          
O164     O      0.000960000000     0.706510000000     0.328810000000     0          
O165     O      0.959330000000     0.749590000000     0.333110000000     0          
C166     C      0.002470000000     0.664510000000     0.373020000000     0          
H167     H      0.004200000000     0.684900000000     0.378600000000     0          
C168     C      0.002460000000     0.642550000000     0.394880000000     0          
H169     H      0.004200000000     0.648100000000     0.415200000000     0          
C170     C      0.016240000000     0.593320000000     0.436390000000     0          
H171     H      0.027500000000     0.611000000000     0.439300000000     0          
C172     C      0.016370000000     0.571530000000     0.458420000000     0          
H173     H      0.027600000000     0.574400000000     0.476100000000     0          
H174     H      0.889000000000     0.737400000000     0.341000000000     0          
H175     H      0.897300000000     0.772000000000     0.344300000000     0          
H176     H      0.913900000000     0.747700000000     0.364400000000     0          
O177     O      0.500960000000     0.206510000000     0.328810000000     0          
O178     O      0.459330000000     0.249590000000     0.333110000000     0          
C179     C      0.502470000000     0.164510000000     0.373020000000     0          
H180     H      0.504200000000     0.184900000000     0.378600000000     0          
C181     C      0.502460000000     0.142550000000     0.394880000000     0          
H182     H      0.504200000000     0.148100000000     0.415200000000     0          
C183     C      0.516240000000     0.093320000000     0.436390000000     0          
H184     H      0.527500000000     0.111000000000     0.439300000000     0          
C185     C      0.516370000000     0.071530000000     0.458420000000     0          
H186     H      0.527600000000     0.074400000000     0.476100000000     0          
H187     H      0.389000000000     0.237400000000     0.341000000000     0          
H188     H      0.397300000000     0.272000000000     0.344300000000     0          
H189     H      0.413900000000     0.247700000000     0.364400000000     0          
O190     O      0.500960000000     0.706510000000     0.828810000000     0          
O191     O      0.459330000000     0.749590000000     0.833110000000     0          
C192     C      0.502470000000     0.664510000000     0.873020000000     0          
H193     H      0.504200000000     0.684900000000     0.878600000000     0          
C194     C      0.502460000000     0.642550000000     0.894880000000     0          
H195     H      0.504200000000     0.648100000000     0.915200000000     0          
C196     C      0.516240000000     0.593320000000     0.936390000000     0          
H197     H      0.527500000000     0.611000000000     0.939300000000     0          
C198     C      0.516370000000     0.571530000000     0.958420000000     0          
H199     H      0.527600000000     0.574400000000     0.976100000000     0          
O200     O      0.421190000000     0.500960000000     0.543490000000     0          
O201     O      0.416890000000     0.459330000000     0.500410000000     0          
C202     C      0.376980000000     0.502470000000     0.585490000000     0          
H203     H      0.371400000000     0.504200000000     0.565100000000     0          
C204     C      0.355120000000     0.502460000000     0.607450000000     0          
H205     H      0.334800000000     0.504200000000     0.601900000000     0          
C206     C      0.313610000000     0.516240000000     0.656680000000     0          
H207     H      0.310700000000     0.527500000000     0.639000000000     0          
C208     C      0.291580000000     0.516370000000     0.678470000000     0          
H209     H      0.273900000000     0.527600000000     0.675600000000     0          
H210     H      0.409000000000     0.389000000000     0.512600000000     0          
H211     H      0.405700000000     0.397300000000     0.478000000000     0          
H212     H      0.385600000000     0.413900000000     0.502300000000     0          
O213     O      0.421190000000     0.000960000000     0.043490000000     0          
O214     O      0.416890000000     0.959330000000     0.000410000000     0          
C215     C      0.376980000000     0.002470000000     0.085490000000     0          
H216     H      0.371400000000     0.004200000000     0.065100000000     0          
C217     C      0.355120000000     0.002460000000     0.107450000000     0          
H218     H      0.334800000000     0.004200000000     0.101900000000     0          
C219     C      0.313610000000     0.016240000000     0.156680000000     0          
H220     H      0.310700000000     0.027500000000     0.139000000000     0          
C221     C      0.291580000000     0.016370000000     0.178470000000     0          
H222     H      0.273900000000     0.027600000000     0.175600000000     0          
O223     O      0.921190000000     0.500960000000     0.043490000000     0          
O224     O      0.916890000000     0.459330000000     0.000410000000     0          
C225     C      0.876980000000     0.502470000000     0.085490000000     0          
H226     H      0.871400000000     0.504200000000     0.065100000000     0          
C227     C      0.855120000000     0.502460000000     0.107450000000     0          
H228     H      0.834800000000     0.504200000000     0.101900000000     0          
C229     C      0.813610000000     0.516240000000     0.156680000000     0          
H230     H      0.810700000000     0.527500000000     0.139000000000     0          
C231     C      0.791580000000     0.516370000000     0.178470000000     0          
H232     H      0.773900000000     0.527600000000     0.175600000000     0          
H233     H      0.909000000000     0.389000000000     0.012600000000     0          
H234     H      0.905700000000     0.397300000000     0.978000000000     0          
H235     H      0.885600000000     0.413900000000     0.002300000000     0          
O236     O      0.921190000000     0.000960000000     0.543490000000     0          
O237     O      0.916890000000     0.959330000000     0.500410000000     0          
C238     C      0.876980000000     0.002470000000     0.585490000000     0          
H239     H      0.871400000000     0.004200000000     0.565100000000     0          
C240     C      0.855120000000     0.002460000000     0.607450000000     0          
H241     H      0.834800000000     0.004200000000     0.601900000000     0          
C242     C      0.813610000000     0.016240000000     0.656680000000     0          
H243     H      0.810700000000     0.027500000000     0.639000000000     0          
C244     C      0.791580000000     0.016370000000     0.678470000000     0          
H245     H      0.773900000000     0.027600000000     0.675600000000     0          
O246     O      0.921190000000     0.249040000000     0.706510000000     0          
O247     O      0.916890000000     0.290670000000     0.749590000000     0          
C248     C      0.876980000000     0.247530000000     0.664510000000     0          
H249     H      0.871400000000     0.245800000000     0.684900000000     0          
C250     C      0.855120000000     0.247540000000     0.642550000000     0          
H251     H      0.834800000000     0.245800000000     0.648100000000     0          
C252     C      0.813610000000     0.233760000000     0.593320000000     0          
H253     H      0.810700000000     0.222500000000     0.611000000000     0          
C254     C      0.791580000000     0.233630000000     0.571530000000     0          
H255     H      0.773900000000     0.222400000000     0.574400000000     0          
O256     O      0.921190000000     0.749040000000     0.206510000000     0          
O257     O      0.916890000000     0.790670000000     0.249590000000     0          
C258     C      0.876980000000     0.747530000000     0.164510000000     0          
H259     H      0.871400000000     0.745800000000     0.184900000000     0          
C260     C      0.855120000000     0.747540000000     0.142550000000     0          
H261     H      0.834800000000     0.745800000000     0.148100000000     0          
C262     C      0.813610000000     0.733760000000     0.093320000000     0          
H263     H      0.810700000000     0.722500000000     0.111000000000     0          
C264     C      0.791580000000     0.733630000000     0.071530000000     0          
H265     H      0.773900000000     0.722400000000     0.074400000000     0          
H266     H      0.909000000000     0.861000000000     0.237400000000     0          
H267     H      0.905700000000     0.852700000000     0.272000000000     0          
H268     H      0.885600000000     0.836100000000     0.247700000000     0          
O269     O      0.421190000000     0.249040000000     0.206510000000     0          
O270     O      0.416890000000     0.290670000000     0.249590000000     0          
C271     C      0.376980000000     0.247530000000     0.164510000000     0          
H272     H      0.371400000000     0.245800000000     0.184900000000     0          
C273     C      0.355120000000     0.247540000000     0.142550000000     0          
H274     H      0.334800000000     0.245800000000     0.148100000000     0          
C275     C      0.313610000000     0.233760000000     0.093320000000     0          
H276     H      0.310700000000     0.222500000000     0.111000000000     0          
C277     C      0.291580000000     0.233630000000     0.071530000000     0          
H278     H      0.273900000000     0.222400000000     0.074400000000     0          
H279     H      0.409000000000     0.361000000000     0.237400000000     0          
H280     H      0.405700000000     0.352700000000     0.272000000000     0          
H281     H      0.385600000000     0.336100000000     0.247700000000     0          
O282     O      0.421190000000     0.749040000000     0.706510000000     0          
O283     O      0.416890000000     0.790670000000     0.749590000000     0          
C284     C      0.376980000000     0.747530000000     0.664510000000     0          
H285     H      0.371400000000     0.745800000000     0.684900000000     0          
C286     C      0.355120000000     0.747540000000     0.642550000000     0          
H287     H      0.334800000000     0.745800000000     0.648100000000     0          
C288     C      0.313610000000     0.733760000000     0.593320000000     0          
H289     H      0.310700000000     0.722500000000     0.611000000000     0          
C290     C      0.291580000000     0.733630000000     0.571530000000     0          
H291     H      0.273900000000     0.722400000000     0.574400000000     0          
O292     O      0.328810000000     0.749040000000     0.043490000000     0          
O293     O      0.333110000000     0.790670000000     0.000410000000     0          
C294     C      0.373020000000     0.747530000000     0.085490000000     0          
H295     H      0.378600000000     0.745800000000     0.065100000000     0          
C296     C      0.394880000000     0.747540000000     0.107450000000     0          
H297     H      0.415200000000     0.745800000000     0.101900000000     0          
C298     C      0.436390000000     0.733760000000     0.156680000000     0          
H299     H      0.439300000000     0.722500000000     0.139000000000     0          
C300     C      0.458420000000     0.733630000000     0.178470000000     0          
H301     H      0.476100000000     0.722400000000     0.175600000000     0          
H302     H      0.341000000000     0.861000000000     0.012600000000     0          
H303     H      0.344300000000     0.852700000000     0.978000000000     0          
H304     H      0.364400000000     0.836100000000     0.002300000000     0          
O305     O      0.328810000000     0.249040000000     0.543490000000     0          
O306     O      0.333110000000     0.290670000000     0.500410000000     0          
C307     C      0.373020000000     0.247530000000     0.585490000000     0          
H308     H      0.378600000000     0.245800000000     0.565100000000     0          
C309     C      0.394880000000     0.247540000000     0.607450000000     0          
H310     H      0.415200000000     0.245800000000     0.601900000000     0          
C311     C      0.436390000000     0.233760000000     0.656680000000     0          
H312     H      0.439300000000     0.222500000000     0.639000000000     0          
C313     C      0.458420000000     0.233630000000     0.678470000000     0          
H314     H      0.476100000000     0.222400000000     0.675600000000     0          
H315     H      0.341000000000     0.361000000000     0.512600000000     0          
H316     H      0.344300000000     0.352700000000     0.478000000000     0          
H317     H      0.364400000000     0.336100000000     0.502300000000     0          
O318     O      0.828810000000     0.749040000000     0.543490000000     0          
O319     O      0.833110000000     0.790670000000     0.500410000000     0          
C320     C      0.873020000000     0.747530000000     0.585490000000     0          
H321     H      0.878600000000     0.745800000000     0.565100000000     0          
C322     C      0.894880000000     0.747540000000     0.607450000000     0          
H323     H      0.915200000000     0.745800000000     0.601900000000     0          
C324     C      0.936390000000     0.733760000000     0.656680000000     0          
H325     H      0.939300000000     0.722500000000     0.639000000000     0          
C326     C      0.958420000000     0.733630000000     0.678470000000     0          
H327     H      0.976100000000     0.722400000000     0.675600000000     0          
O328     O      0.828810000000     0.249040000000     0.043490000000     0          
O329     O      0.833110000000     0.290670000000     0.000410000000     0          
C330     C      0.873020000000     0.247530000000     0.085490000000     0          
H331     H      0.878600000000     0.245800000000     0.065100000000     0          
C332     C      0.894880000000     0.247540000000     0.107450000000     0          
H333     H      0.915200000000     0.245800000000     0.101900000000     0          
C334     C      0.936390000000     0.233760000000     0.156680000000     0          
H335     H      0.939300000000     0.222500000000     0.139000000000     0          
C336     C      0.958420000000     0.233630000000     0.178470000000     0          
H337     H      0.976100000000     0.222400000000     0.175600000000     0          
O338     O      0.828810000000     0.000960000000     0.206510000000     0          
O339     O      0.833110000000     0.959330000000     0.249590000000     0          
C340     C      0.873020000000     0.002470000000     0.164510000000     0          
H341     H      0.878600000000     0.004200000000     0.184900000000     0          
C342     C      0.894880000000     0.002460000000     0.142550000000     0          
H343     H      0.915200000000     0.004200000000     0.148100000000     0          
C344     C      0.936390000000     0.016240000000     0.093320000000     0          
H345     H      0.939300000000     0.027500000000     0.111000000000     0          
C346     C      0.958420000000     0.016370000000     0.071530000000     0          
H347     H      0.976100000000     0.027600000000     0.074400000000     0          
O348     O      0.828810000000     0.500960000000     0.706510000000     0          
O349     O      0.833110000000     0.459330000000     0.749590000000     0          
C350     C      0.873020000000     0.502470000000     0.664510000000     0          
H351     H      0.878600000000     0.504200000000     0.684900000000     0          
C352     C      0.894880000000     0.502460000000     0.642550000000     0          
H353     H      0.915200000000     0.504200000000     0.648100000000     0          
C354     C      0.936390000000     0.516240000000     0.593320000000     0          
H355     H      0.939300000000     0.527500000000     0.611000000000     0          
C356     C      0.958420000000     0.516370000000     0.571530000000     0          
H357     H      0.976100000000     0.527600000000     0.574400000000     0          
O358     O      0.328810000000     0.000960000000     0.706510000000     0          
O359     O      0.333110000000     0.959330000000     0.749590000000     0          
C360     C      0.373020000000     0.002470000000     0.664510000000     0          
H361     H      0.378600000000     0.004200000000     0.684900000000     0          
C362     C      0.394880000000     0.002460000000     0.642550000000     0          
H363     H      0.415200000000     0.004200000000     0.648100000000     0          
C364     C      0.436390000000     0.016240000000     0.593320000000     0          
H365     H      0.439300000000     0.027500000000     0.611000000000     0          
C366     C      0.458420000000     0.016370000000     0.571530000000     0          
H367     H      0.476100000000     0.027600000000     0.574400000000     0          
H368     H      0.341000000000     0.889000000000     0.737400000000     0          
H369     H      0.344300000000     0.897300000000     0.772000000000     0          
H370     H      0.364400000000     0.913900000000     0.747700000000     0          
O371     O      0.328810000000     0.500960000000     0.206510000000     0          
O372     O      0.333110000000     0.459330000000     0.249590000000     0          
C373     C      0.373020000000     0.502470000000     0.164510000000     0          
H374     H      0.378600000000     0.504200000000     0.184900000000     0          
C375     C      0.394880000000     0.502460000000     0.142550000000     0          
H376     H      0.415200000000     0.504200000000     0.148100000000     0          
C377     C      0.436390000000     0.516240000000     0.093320000000     0          
H378     H      0.439300000000     0.527500000000     0.111000000000     0          
C379     C      0.458420000000     0.516370000000     0.071530000000     0          
H380     H      0.476100000000     0.527600000000     0.074400000000     0          
O381     O      0.543490000000     0.421190000000     0.500960000000     0          
O382     O      0.500410000000     0.416890000000     0.459330000000     0          
C383     C      0.585490000000     0.376980000000     0.502470000000     0          
H384     H      0.565100000000     0.371400000000     0.504200000000     0          
C385     C      0.607450000000     0.355120000000     0.502460000000     0          
H386     H      0.601900000000     0.334800000000     0.504200000000     0          
C387     C      0.656680000000     0.313610000000     0.516240000000     0          
H388     H      0.639000000000     0.310700000000     0.527500000000     0          
C389     C      0.678470000000     0.291580000000     0.516370000000     0          
H390     H      0.675600000000     0.273900000000     0.527600000000     0          
H391     H      0.512600000000     0.409000000000     0.389000000000     0          
H392     H      0.478000000000     0.405700000000     0.397300000000     0          
H393     H      0.502300000000     0.385600000000     0.413900000000     0          
O394     O      0.543490000000     0.921190000000     0.000960000000     0          
O395     O      0.500410000000     0.916890000000     0.959330000000     0          
C396     C      0.585490000000     0.876980000000     0.002470000000     0          
H397     H      0.565100000000     0.871400000000     0.004200000000     0          
C398     C      0.607450000000     0.855120000000     0.002460000000     0          
H399     H      0.601900000000     0.834800000000     0.004200000000     0          
C400     C      0.656680000000     0.813610000000     0.016240000000     0          
H401     H      0.639000000000     0.810700000000     0.027500000000     0          
C402     C      0.678470000000     0.791580000000     0.016370000000     0          
H403     H      0.675600000000     0.773900000000     0.027600000000     0          
H404     H      0.512600000000     0.909000000000     0.889000000000     0          
H405     H      0.478000000000     0.905700000000     0.897300000000     0          
H406     H      0.502300000000     0.885600000000     0.913900000000     0          
O407     O      0.043490000000     0.421190000000     0.000960000000     0          
O408     O      0.000410000000     0.416890000000     0.959330000000     0          
C409     C      0.085490000000     0.376980000000     0.002470000000     0          
H410     H      0.065100000000     0.371400000000     0.004200000000     0          
C411     C      0.107450000000     0.355120000000     0.002460000000     0          
H412     H      0.101900000000     0.334800000000     0.004200000000     0          
C413     C      0.156680000000     0.313610000000     0.016240000000     0          
H414     H      0.139000000000     0.310700000000     0.027500000000     0          
C415     C      0.178470000000     0.291580000000     0.016370000000     0          
H416     H      0.175600000000     0.273900000000     0.027600000000     0          
O417     O      0.043490000000     0.921190000000     0.500960000000     0          
O418     O      0.000410000000     0.916890000000     0.459330000000     0          
C419     C      0.085490000000     0.876980000000     0.502470000000     0          
H420     H      0.065100000000     0.871400000000     0.504200000000     0          
C421     C      0.107450000000     0.855120000000     0.502460000000     0          
H422     H      0.101900000000     0.834800000000     0.504200000000     0          
C423     C      0.156680000000     0.813610000000     0.516240000000     0          
H424     H      0.139000000000     0.810700000000     0.527500000000     0          
C425     C      0.178470000000     0.791580000000     0.516370000000     0          
H426     H      0.175600000000     0.773900000000     0.527600000000     0          
O427     O      0.706510000000     0.921190000000     0.249040000000     0          
O428     O      0.749590000000     0.916890000000     0.290670000000     0          
C429     C      0.664510000000     0.876980000000     0.247530000000     0          
H430     H      0.684900000000     0.871400000000     0.245800000000     0          
C431     C      0.642550000000     0.855120000000     0.247540000000     0          
H432     H      0.648100000000     0.834800000000     0.245800000000     0          
C433     C      0.593320000000     0.813610000000     0.233760000000     0          
H434     H      0.611000000000     0.810700000000     0.222500000000     0          
C435     C      0.571530000000     0.791580000000     0.233630000000     0          
H436     H      0.574400000000     0.773900000000     0.222400000000     0          
O437     O      0.706510000000     0.421190000000     0.749040000000     0          
O438     O      0.749590000000     0.416890000000     0.790670000000     0          
C439     C      0.664510000000     0.376980000000     0.747530000000     0          
H440     H      0.684900000000     0.371400000000     0.745800000000     0          
C441     C      0.642550000000     0.355120000000     0.747540000000     0          
H442     H      0.648100000000     0.334800000000     0.745800000000     0          
C443     C      0.593320000000     0.313610000000     0.733760000000     0          
H444     H      0.611000000000     0.310700000000     0.722500000000     0          
C445     C      0.571530000000     0.291580000000     0.733630000000     0          
H446     H      0.574400000000     0.273900000000     0.722400000000     0          
O447     O      0.206510000000     0.921190000000     0.749040000000     0          
O448     O      0.249590000000     0.916890000000     0.790670000000     0          
C449     C      0.164510000000     0.876980000000     0.747530000000     0          
H450     H      0.184900000000     0.871400000000     0.745800000000     0          
C451     C      0.142550000000     0.855120000000     0.747540000000     0          
H452     H      0.148100000000     0.834800000000     0.745800000000     0          
C453     C      0.093320000000     0.813610000000     0.733760000000     0          
H454     H      0.111000000000     0.810700000000     0.722500000000     0          
C455     C      0.071530000000     0.791580000000     0.733630000000     0          
H456     H      0.074400000000     0.773900000000     0.722400000000     0          
O457     O      0.206510000000     0.421190000000     0.249040000000     0          
O458     O      0.249590000000     0.416890000000     0.290670000000     0          
C459     C      0.164510000000     0.376980000000     0.247530000000     0          
H460     H      0.184900000000     0.371400000000     0.245800000000     0          
C461     C      0.142550000000     0.355120000000     0.247540000000     0          
H462     H      0.148100000000     0.334800000000     0.245800000000     0          
C463     C      0.093320000000     0.313610000000     0.233760000000     0          
H464     H      0.111000000000     0.310700000000     0.222500000000     0          
C465     C      0.071530000000     0.291580000000     0.233630000000     0          
H466     H      0.074400000000     0.273900000000     0.222400000000     0          
O467     O      0.043490000000     0.328810000000     0.749040000000     0          
O468     O      0.000410000000     0.333110000000     0.790670000000     0          
C469     C      0.085490000000     0.373020000000     0.747530000000     0          
H470     H      0.065100000000     0.378600000000     0.745800000000     0          
C471     C      0.107450000000     0.394880000000     0.747540000000     0          
H472     H      0.101900000000     0.415200000000     0.745800000000     0          
C473     C      0.156680000000     0.436390000000     0.733760000000     0          
H474     H      0.139000000000     0.439300000000     0.722500000000     0          
C475     C      0.178470000000     0.458420000000     0.733630000000     0          
H476     H      0.175600000000     0.476100000000     0.722400000000     0          
O477     O      0.043490000000     0.828810000000     0.249040000000     0          
O478     O      0.000410000000     0.833110000000     0.290670000000     0          
C479     C      0.085490000000     0.873020000000     0.247530000000     0          
H480     H      0.065100000000     0.878600000000     0.245800000000     0          
C481     C      0.107450000000     0.894880000000     0.247540000000     0          
H482     H      0.101900000000     0.915200000000     0.245800000000     0          
C483     C      0.156680000000     0.936390000000     0.233760000000     0          
H484     H      0.139000000000     0.939300000000     0.222500000000     0          
C485     C      0.178470000000     0.958420000000     0.233630000000     0          
H486     H      0.175600000000     0.976100000000     0.222400000000     0          
O487     O      0.543490000000     0.328810000000     0.249040000000     0          
O488     O      0.500410000000     0.333110000000     0.290670000000     0          
C489     C      0.585490000000     0.373020000000     0.247530000000     0          
H490     H      0.565100000000     0.378600000000     0.245800000000     0          
C491     C      0.607450000000     0.394880000000     0.247540000000     0          
H492     H      0.601900000000     0.415200000000     0.245800000000     0          
C493     C      0.656680000000     0.436390000000     0.233760000000     0          
H494     H      0.639000000000     0.439300000000     0.222500000000     0          
C495     C      0.678470000000     0.458420000000     0.233630000000     0          
H496     H      0.675600000000     0.476100000000     0.222400000000     0          
O497     O      0.543490000000     0.828810000000     0.749040000000     0          
O498     O      0.500410000000     0.833110000000     0.790670000000     0          
C499     C      0.585490000000     0.873020000000     0.747530000000     0          
H500     H      0.565100000000     0.878600000000     0.745800000000     0          
C501     C      0.607450000000     0.894880000000     0.747540000000     0          
H502     H      0.601900000000     0.915200000000     0.745800000000     0          
C503     C      0.656680000000     0.936390000000     0.733760000000     0          
H504     H      0.639000000000     0.939300000000     0.722500000000     0          
C505     C      0.678470000000     0.958420000000     0.733630000000     0          
H506     H      0.675600000000     0.976100000000     0.722400000000     0          
O507     O      0.206510000000     0.828810000000     0.000960000000     0          
O508     O      0.249590000000     0.833110000000     0.959330000000     0          
C509     C      0.164510000000     0.873020000000     0.002470000000     0          
H510     H      0.184900000000     0.878600000000     0.004200000000     0          
C511     C      0.142550000000     0.894880000000     0.002460000000     0          
H512     H      0.148100000000     0.915200000000     0.004200000000     0          
C513     C      0.093320000000     0.936390000000     0.016240000000     0          
H514     H      0.111000000000     0.939300000000     0.027500000000     0          
C515     C      0.071530000000     0.958420000000     0.016370000000     0          
H516     H      0.074400000000     0.976100000000     0.027600000000     0          
O517     O      0.206510000000     0.328810000000     0.500960000000     0          
O518     O      0.249590000000     0.333110000000     0.459330000000     0          
C519     C      0.164510000000     0.373020000000     0.502470000000     0          
H520     H      0.184900000000     0.378600000000     0.504200000000     0          
C521     C      0.142550000000     0.394880000000     0.502460000000     0          
H522     H      0.148100000000     0.415200000000     0.504200000000     0          
C523     C      0.093320000000     0.436390000000     0.516240000000     0          
H524     H      0.111000000000     0.439300000000     0.527500000000     0          
C525     C      0.071530000000     0.458420000000     0.516370000000     0          
H526     H      0.074400000000     0.476100000000     0.527600000000     0          
O527     O      0.706510000000     0.828810000000     0.500960000000     0          
O528     O      0.749590000000     0.833110000000     0.459330000000     0          
C529     C      0.664510000000     0.873020000000     0.502470000000     0          
H530     H      0.684900000000     0.878600000000     0.504200000000     0          
C531     C      0.642550000000     0.894880000000     0.502460000000     0          
H532     H      0.648100000000     0.915200000000     0.504200000000     0          
C533     C      0.593320000000     0.936390000000     0.516240000000     0          
H534     H      0.611000000000     0.939300000000     0.527500000000     0          
C535     C      0.571530000000     0.958420000000     0.516370000000     0          
H536     H      0.574400000000     0.976100000000     0.527600000000     0          
O537     O      0.706510000000     0.328810000000     0.000960000000     0          
O538     O      0.749590000000     0.333110000000     0.959330000000     0          
C539     C      0.664510000000     0.373020000000     0.002470000000     0          
H540     H      0.684900000000     0.378600000000     0.004200000000     0          
C541     C      0.642550000000     0.394880000000     0.002460000000     0          
H542     H      0.648100000000     0.415200000000     0.004200000000     0          
C543     C      0.593320000000     0.436390000000     0.016240000000     0          
H544     H      0.611000000000     0.439300000000     0.027500000000     0          
C545     C      0.571530000000     0.458420000000     0.016370000000     0          
H546     H      0.574400000000     0.476100000000     0.027600000000     0          
H547     H      0.737400000000     0.341000000000     0.889000000000     0          
H548     H      0.772000000000     0.344300000000     0.897300000000     0          
H549     H      0.747700000000     0.364400000000     0.913900000000     0          
O550     O      0.293490000000     0.750960000000     0.078810000000     0          
O551     O      0.250410000000     0.709330000000     0.083110000000     0          
C552     C      0.335490000000     0.752470000000     0.123020000000     0          
H553     H      0.315100000000     0.754200000000     0.128600000000     0          
C554     C      0.357450000000     0.752460000000     0.144880000000     0          
H555     H      0.351900000000     0.754200000000     0.165200000000     0          
C556     C      0.406680000000     0.766240000000     0.186390000000     0          
H557     H      0.389000000000     0.777500000000     0.189300000000     0          
C558     C      0.428470000000     0.766370000000     0.208420000000     0          
H559     H      0.425600000000     0.777600000000     0.226100000000     0          
O560     O      0.293490000000     0.250960000000     0.578810000000     0          
O561     O      0.250410000000     0.209330000000     0.583110000000     0          
C562     C      0.335490000000     0.252470000000     0.623020000000     0          
H563     H      0.315100000000     0.254200000000     0.628600000000     0          
C564     C      0.357450000000     0.252460000000     0.644880000000     0          
H565     H      0.351900000000     0.254200000000     0.665200000000     0          
C566     C      0.406680000000     0.266240000000     0.686390000000     0          
H567     H      0.389000000000     0.277500000000     0.689300000000     0          
C568     C      0.428470000000     0.266370000000     0.708420000000     0          
H569     H      0.425600000000     0.277600000000     0.726100000000     0          
O570     O      0.793490000000     0.750960000000     0.578810000000     0          
O571     O      0.750410000000     0.709330000000     0.583110000000     0          
C572     C      0.835490000000     0.752470000000     0.623020000000     0          
H573     H      0.815100000000     0.754200000000     0.628600000000     0          
C574     C      0.857450000000     0.752460000000     0.644880000000     0          
H575     H      0.851900000000     0.754200000000     0.665200000000     0          
C576     C      0.906680000000     0.766240000000     0.686390000000     0          
H577     H      0.889000000000     0.777500000000     0.689300000000     0          
C578     C      0.928470000000     0.766370000000     0.708420000000     0          
H579     H      0.925600000000     0.777600000000     0.726100000000     0          
O580     O      0.793490000000     0.250960000000     0.078810000000     0          
O581     O      0.750410000000     0.209330000000     0.083110000000     0          
C582     C      0.835490000000     0.252470000000     0.123020000000     0          
H583     H      0.815100000000     0.254200000000     0.128600000000     0          
C584     C      0.857450000000     0.252460000000     0.144880000000     0          
H585     H      0.851900000000     0.254200000000     0.165200000000     0          
C586     C      0.906680000000     0.266240000000     0.186390000000     0          
H587     H      0.889000000000     0.277500000000     0.189300000000     0          
C588     C      0.928470000000     0.266370000000     0.208420000000     0          
H589     H      0.925600000000     0.277600000000     0.226100000000     0          
O590     O      0.456510000000     0.499040000000     0.578810000000     0          
O591     O      0.499590000000     0.540670000000     0.583110000000     0          
C592     C      0.414510000000     0.497530000000     0.623020000000     0          
H593     H      0.434900000000     0.495800000000     0.628600000000     0          
C594     C      0.392550000000     0.497540000000     0.644880000000     0          
H595     H      0.398100000000     0.495800000000     0.665200000000     0          
C596     C      0.343320000000     0.483760000000     0.686390000000     0          
H597     H      0.361000000000     0.472500000000     0.689300000000     0          
C598     C      0.321530000000     0.483630000000     0.708420000000     0          
H599     H      0.324400000000     0.472400000000     0.726100000000     0          
H600     H      0.487400000000     0.611000000000     0.591000000000     0          
H601     H      0.522000000000     0.602700000000     0.594300000000     0          
H602     H      0.497700000000     0.586100000000     0.614400000000     0          
O603     O      0.456510000000     0.999040000000     0.078810000000     0          
O604     O      0.499590000000     0.040670000000     0.083110000000     0          
C605     C      0.414510000000     0.997530000000     0.123020000000     0          
H606     H      0.434900000000     0.995800000000     0.128600000000     0          
C607     C      0.392550000000     0.997540000000     0.144880000000     0          
H608     H      0.398100000000     0.995800000000     0.165200000000     0          
C609     C      0.343320000000     0.983760000000     0.186390000000     0          
H610     H      0.361000000000     0.972500000000     0.189300000000     0          
C611     C      0.321530000000     0.983630000000     0.208420000000     0          
H612     H      0.324400000000     0.972400000000     0.226100000000     0          
H613     H      0.487400000000     0.111000000000     0.091000000000     0          
H614     H      0.522000000000     0.102700000000     0.094300000000     0          
H615     H      0.497700000000     0.086100000000     0.114400000000     0          
O616     O      0.956510000000     0.499040000000     0.078810000000     0          
O617     O      0.999590000000     0.540670000000     0.083110000000     0          
C618     C      0.914510000000     0.497530000000     0.123020000000     0          
H619     H      0.934900000000     0.495800000000     0.128600000000     0          
C620     C      0.892550000000     0.497540000000     0.144880000000     0          
H621     H      0.898100000000     0.495800000000     0.165200000000     0          
C622     C      0.843320000000     0.483760000000     0.186390000000     0          
H623     H      0.861000000000     0.472500000000     0.189300000000     0          
C624     C      0.821530000000     0.483630000000     0.208420000000     0          
H625     H      0.824400000000     0.472400000000     0.226100000000     0          
H626     H      0.987400000000     0.611000000000     0.091000000000     0          
H627     H      0.022000000000     0.602700000000     0.094300000000     0          
H628     H      0.997700000000     0.586100000000     0.114400000000     0          
O629     O      0.956510000000     0.999040000000     0.578810000000     0          
O630     O      0.999590000000     0.040670000000     0.583110000000     0          
C631     C      0.914510000000     0.997530000000     0.623020000000     0          
H632     H      0.934900000000     0.995800000000     0.628600000000     0          
C633     C      0.892550000000     0.997540000000     0.644880000000     0          
H634     H      0.898100000000     0.995800000000     0.665200000000     0          
C635     C      0.843320000000     0.983760000000     0.686390000000     0          
H636     H      0.861000000000     0.972500000000     0.689300000000     0          
C637     C      0.821530000000     0.983630000000     0.708420000000     0          
H638     H      0.824400000000     0.972400000000     0.726100000000     0          
H639     H      0.987400000000     0.111000000000     0.591000000000     0          
H640     H      0.022000000000     0.102700000000     0.594300000000     0          
H641     H      0.997700000000     0.086100000000     0.614400000000     0          
O642     O      0.793490000000     0.999040000000     0.171190000000     0          
O643     O      0.750410000000     0.040670000000     0.166890000000     0          
C644     C      0.835490000000     0.997530000000     0.126980000000     0          
H645     H      0.815100000000     0.995800000000     0.121400000000     0          
C646     C      0.857450000000     0.997540000000     0.105120000000     0          
H647     H      0.851900000000     0.995800000000     0.084800000000     0          
C648     C      0.906680000000     0.983760000000     0.063610000000     0          
H649     H      0.889000000000     0.972500000000     0.060700000000     0          
C650     C      0.928470000000     0.983630000000     0.041580000000     0          
H651     H      0.925600000000     0.972400000000     0.023900000000     0          
H652     H      0.762600000000     0.111000000000     0.159000000000     0          
H653     H      0.728000000000     0.102700000000     0.155700000000     0          
H654     H      0.752300000000     0.086100000000     0.135600000000     0          
O655     O      0.793490000000     0.499040000000     0.671190000000     0          
O656     O      0.750410000000     0.540670000000     0.666890000000     0          
C657     C      0.835490000000     0.497530000000     0.626980000000     0          
H658     H      0.815100000000     0.495800000000     0.621400000000     0          
C659     C      0.857450000000     0.497540000000     0.605120000000     0          
H660     H      0.851900000000     0.495800000000     0.584800000000     0          
C661     C      0.906680000000     0.483760000000     0.563610000000     0          
H662     H      0.889000000000     0.472500000000     0.560700000000     0          
C663     C      0.928470000000     0.483630000000     0.541580000000     0          
H664     H      0.925600000000     0.472400000000     0.523900000000     0          
O665     O      0.293490000000     0.999040000000     0.671190000000     0          
O666     O      0.250410000000     0.040670000000     0.666890000000     0          
C667     C      0.335490000000     0.997530000000     0.626980000000     0          
H668     H      0.315100000000     0.995800000000     0.621400000000     0          
C669     C      0.357450000000     0.997540000000     0.605120000000     0          
H670     H      0.351900000000     0.995800000000     0.584800000000     0          
C671     C      0.406680000000     0.983760000000     0.563610000000     0          
H672     H      0.389000000000     0.972500000000     0.560700000000     0          
C673     C      0.428470000000     0.983630000000     0.541580000000     0          
H674     H      0.425600000000     0.972400000000     0.523900000000     0          
H675     H      0.262600000000     0.111000000000     0.659000000000     0          
H676     H      0.228000000000     0.102700000000     0.655700000000     0          
H677     H      0.252300000000     0.086100000000     0.635600000000     0          
O678     O      0.293490000000     0.499040000000     0.171190000000     0          
O679     O      0.250410000000     0.540670000000     0.166890000000     0          
C680     C      0.335490000000     0.497530000000     0.126980000000     0          
H681     H      0.315100000000     0.495800000000     0.121400000000     0          
C682     C      0.357450000000     0.497540000000     0.105120000000     0          
H683     H      0.351900000000     0.495800000000     0.084800000000     0          
C684     C      0.406680000000     0.483760000000     0.063610000000     0          
H685     H      0.389000000000     0.472500000000     0.060700000000     0          
C686     C      0.428470000000     0.483630000000     0.041580000000     0          
H687     H      0.425600000000     0.472400000000     0.023900000000     0          
O688     O      0.956510000000     0.250960000000     0.671190000000     0          
O689     O      0.999590000000     0.209330000000     0.666890000000     0          
C690     C      0.914510000000     0.252470000000     0.626980000000     0          
H691     H      0.934900000000     0.254200000000     0.621400000000     0          
C692     C      0.892550000000     0.252460000000     0.605120000000     0          
H693     H      0.898100000000     0.254200000000     0.584800000000     0          
C694     C      0.843320000000     0.266240000000     0.563610000000     0          
H695     H      0.861000000000     0.277500000000     0.560700000000     0          
C696     C      0.821530000000     0.266370000000     0.541580000000     0          
H697     H      0.824400000000     0.277600000000     0.523900000000     0          
O698     O      0.956510000000     0.750960000000     0.171190000000     0          
O699     O      0.999590000000     0.709330000000     0.166890000000     0          
C700     C      0.914510000000     0.752470000000     0.126980000000     0          
H701     H      0.934900000000     0.754200000000     0.121400000000     0          
C702     C      0.892550000000     0.752460000000     0.105120000000     0          
H703     H      0.898100000000     0.754200000000     0.084800000000     0          
C704     C      0.843320000000     0.766240000000     0.063610000000     0          
H705     H      0.861000000000     0.777500000000     0.060700000000     0          
C706     C      0.821530000000     0.766370000000     0.041580000000     0          
H707     H      0.824400000000     0.777600000000     0.023900000000     0          
H708     H      0.987400000000     0.639000000000     0.159000000000     0          
H709     H      0.022000000000     0.647300000000     0.155700000000     0          
H710     H      0.997700000000     0.663900000000     0.135600000000     0          
O711     O      0.456510000000     0.250960000000     0.171190000000     0          
O712     O      0.499590000000     0.209330000000     0.166890000000     0          
C713     C      0.414510000000     0.252470000000     0.126980000000     0          
H714     H      0.434900000000     0.254200000000     0.121400000000     0          
C715     C      0.392550000000     0.252460000000     0.105120000000     0          
H716     H      0.398100000000     0.254200000000     0.084800000000     0          
C717     C      0.343320000000     0.266240000000     0.063610000000     0          
H718     H      0.361000000000     0.277500000000     0.060700000000     0          
C719     C      0.321530000000     0.266370000000     0.041580000000     0          
H720     H      0.324400000000     0.277600000000     0.023900000000     0          
H721     H      0.487400000000     0.139000000000     0.159000000000     0          
H722     H      0.522000000000     0.147300000000     0.155700000000     0          
H723     H      0.497700000000     0.163900000000     0.135600000000     0          
O724     O      0.456510000000     0.750960000000     0.671190000000     0          
O725     O      0.499590000000     0.709330000000     0.666890000000     0          
C726     C      0.414510000000     0.752470000000     0.626980000000     0          
H727     H      0.434900000000     0.754200000000     0.621400000000     0          
C728     C      0.392550000000     0.752460000000     0.605120000000     0          
H729     H      0.398100000000     0.754200000000     0.584800000000     0          
C730     C      0.343320000000     0.766240000000     0.563610000000     0          
H731     H      0.361000000000     0.777500000000     0.560700000000     0          
C732     C      0.321530000000     0.766370000000     0.541580000000     0          
H733     H      0.324400000000     0.777600000000     0.523900000000     0          
H734     H      0.487400000000     0.639000000000     0.659000000000     0          
H735     H      0.522000000000     0.647300000000     0.655700000000     0          
H736     H      0.497700000000     0.663900000000     0.635600000000     0          
O737     O      0.250960000000     0.671190000000     0.956510000000     0          
O738     O      0.209330000000     0.666890000000     0.999590000000     0          
C739     C      0.252470000000     0.626980000000     0.914510000000     0          
H740     H      0.254200000000     0.621400000000     0.934900000000     0          
C741     C      0.252460000000     0.605120000000     0.892550000000     0          
H742     H      0.254200000000     0.584800000000     0.898100000000     0          
C743     C      0.266240000000     0.563610000000     0.843320000000     0          
H744     H      0.277500000000     0.560700000000     0.861000000000     0          
C745     C      0.266370000000     0.541580000000     0.821530000000     0          
H746     H      0.277600000000     0.523900000000     0.824400000000     0          
O747     O      0.250960000000     0.171190000000     0.456510000000     0          
O748     O      0.209330000000     0.166890000000     0.499590000000     0          
C749     C      0.252470000000     0.126980000000     0.414510000000     0          
H750     H      0.254200000000     0.121400000000     0.434900000000     0          
C751     C      0.252460000000     0.105120000000     0.392550000000     0          
H752     H      0.254200000000     0.084800000000     0.398100000000     0          
C753     C      0.266240000000     0.063610000000     0.343320000000     0          
H754     H      0.277500000000     0.060700000000     0.361000000000     0          
C755     C      0.266370000000     0.041580000000     0.321530000000     0          
H756     H      0.277600000000     0.023900000000     0.324400000000     0          
O757     O      0.750960000000     0.671190000000     0.456510000000     0          
O758     O      0.709330000000     0.666890000000     0.499590000000     0          
C759     C      0.752470000000     0.626980000000     0.414510000000     0          
H760     H      0.754200000000     0.621400000000     0.434900000000     0          
C761     C      0.752460000000     0.605120000000     0.392550000000     0          
H762     H      0.754200000000     0.584800000000     0.398100000000     0          
C763     C      0.766240000000     0.563610000000     0.343320000000     0          
H764     H      0.777500000000     0.560700000000     0.361000000000     0          
C765     C      0.766370000000     0.541580000000     0.321530000000     0          
H766     H      0.777600000000     0.523900000000     0.324400000000     0          
H767     H      0.639000000000     0.659000000000     0.487400000000     0          
H768     H      0.647300000000     0.655700000000     0.522000000000     0          
H769     H      0.663900000000     0.635600000000     0.497700000000     0          
O770     O      0.750960000000     0.171190000000     0.956510000000     0          
O771     O      0.709330000000     0.166890000000     0.999590000000     0          
C772     C      0.752470000000     0.126980000000     0.914510000000     0          
H773     H      0.754200000000     0.121400000000     0.934900000000     0          
C774     C      0.752460000000     0.105120000000     0.892550000000     0          
H775     H      0.754200000000     0.084800000000     0.898100000000     0          
C776     C      0.766240000000     0.063610000000     0.843320000000     0          
H777     H      0.777500000000     0.060700000000     0.861000000000     0          
C778     C      0.766370000000     0.041580000000     0.821530000000     0          
H779     H      0.777600000000     0.023900000000     0.824400000000     0          
O780     O      0.999040000000     0.171190000000     0.793490000000     0          
O781     O      0.040670000000     0.166890000000     0.750410000000     0          
C782     C      0.997530000000     0.126980000000     0.835490000000     0          
H783     H      0.995800000000     0.121400000000     0.815100000000     0          
C784     C      0.997540000000     0.105120000000     0.857450000000     0          
H785     H      0.995800000000     0.084800000000     0.851900000000     0          
C786     C      0.983760000000     0.063610000000     0.906680000000     0          
H787     H      0.972500000000     0.060700000000     0.889000000000     0          
C788     C      0.983630000000     0.041580000000     0.928470000000     0          
H789     H      0.972400000000     0.023900000000     0.925600000000     0          
H790     H      0.111000000000     0.159000000000     0.762600000000     0          
H791     H      0.102700000000     0.155700000000     0.728000000000     0          
H792     H      0.086100000000     0.135600000000     0.752300000000     0          
O793     O      0.999040000000     0.671190000000     0.293490000000     0          
O794     O      0.040670000000     0.666890000000     0.250410000000     0          
C795     C      0.997530000000     0.626980000000     0.335490000000     0          
H796     H      0.995800000000     0.621400000000     0.315100000000     0          
C797     C      0.997540000000     0.605120000000     0.357450000000     0          
H798     H      0.995800000000     0.584800000000     0.351900000000     0          
C799     C      0.983760000000     0.563610000000     0.406680000000     0          
H800     H      0.972500000000     0.560700000000     0.389000000000     0          
C801     C      0.983630000000     0.541580000000     0.428470000000     0          
H802     H      0.972400000000     0.523900000000     0.425600000000     0          
H803     H      0.111000000000     0.659000000000     0.262600000000     0          
H804     H      0.102700000000     0.655700000000     0.228000000000     0          
H805     H      0.086100000000     0.635600000000     0.252300000000     0          
O806     O      0.499040000000     0.171190000000     0.293490000000     0          
O807     O      0.540670000000     0.166890000000     0.250410000000     0          
C808     C      0.497530000000     0.126980000000     0.335490000000     0          
H809     H      0.495800000000     0.121400000000     0.315100000000     0          
C810     C      0.497540000000     0.105120000000     0.357450000000     0          
H811     H      0.495800000000     0.084800000000     0.351900000000     0          
C812     C      0.483760000000     0.063610000000     0.406680000000     0          
H813     H      0.472500000000     0.060700000000     0.389000000000     0          
C814     C      0.483630000000     0.041580000000     0.428470000000     0          
H815     H      0.472400000000     0.023900000000     0.425600000000     0          
O816     O      0.499040000000     0.671190000000     0.793490000000     0          
O817     O      0.540670000000     0.666890000000     0.750410000000     0          
C818     C      0.497530000000     0.626980000000     0.835490000000     0          
H819     H      0.495800000000     0.621400000000     0.815100000000     0          
C820     C      0.497540000000     0.605120000000     0.857450000000     0          
H821     H      0.495800000000     0.584800000000     0.851900000000     0          
C822     C      0.483760000000     0.563610000000     0.906680000000     0          
H823     H      0.472500000000     0.560700000000     0.889000000000     0          
C824     C      0.483630000000     0.541580000000     0.928470000000     0          
H825     H      0.472400000000     0.523900000000     0.925600000000     0          
O826     O      0.499040000000     0.578810000000     0.456510000000     0          
O827     O      0.540670000000     0.583110000000     0.499590000000     0          
C828     C      0.497530000000     0.623020000000     0.414510000000     0          
H829     H      0.495800000000     0.628600000000     0.434900000000     0          
C830     C      0.497540000000     0.644880000000     0.392550000000     0          
H831     H      0.495800000000     0.665200000000     0.398100000000     0          
C832     C      0.483760000000     0.686390000000     0.343320000000     0          
H833     H      0.472500000000     0.689300000000     0.361000000000     0          
C834     C      0.483630000000     0.708420000000     0.321530000000     0          
H835     H      0.472400000000     0.726100000000     0.324400000000     0          
H836     H      0.611000000000     0.591000000000     0.487400000000     0          
H837     H      0.602700000000     0.594300000000     0.522000000000     0          
H838     H      0.586100000000     0.614400000000     0.497700000000     0          
O839     O      0.499040000000     0.078810000000     0.956510000000     0          
O840     O      0.540670000000     0.083110000000     0.999590000000     0          
C841     C      0.497530000000     0.123020000000     0.914510000000     0          
H842     H      0.495800000000     0.128600000000     0.934900000000     0          
C843     C      0.497540000000     0.144880000000     0.892550000000     0          
H844     H      0.495800000000     0.165200000000     0.898100000000     0          
C845     C      0.483760000000     0.186390000000     0.843320000000     0          
H846     H      0.472500000000     0.189300000000     0.861000000000     0          
C847     C      0.483630000000     0.208420000000     0.821530000000     0          
H848     H      0.472400000000     0.226100000000     0.824400000000     0          
O849     O      0.999040000000     0.578810000000     0.956510000000     0          
O850     O      0.040670000000     0.583110000000     0.999590000000     0          
C851     C      0.997530000000     0.623020000000     0.914510000000     0          
H852     H      0.995800000000     0.628600000000     0.934900000000     0          
C853     C      0.997540000000     0.644880000000     0.892550000000     0          
H854     H      0.995800000000     0.665200000000     0.898100000000     0          
C855     C      0.983760000000     0.686390000000     0.843320000000     0          
H856     H      0.972500000000     0.689300000000     0.861000000000     0          
C857     C      0.983630000000     0.708420000000     0.821530000000     0          
H858     H      0.972400000000     0.726100000000     0.824400000000     0          
H859     H      0.111000000000     0.591000000000     0.987400000000     0          
H860     H      0.102700000000     0.594300000000     0.022000000000     0          
H861     H      0.086100000000     0.614400000000     0.997700000000     0          
O862     O      0.999040000000     0.078810000000     0.456510000000     0          
O863     O      0.040670000000     0.083110000000     0.499590000000     0          
C864     C      0.997530000000     0.123020000000     0.414510000000     0          
H865     H      0.995800000000     0.128600000000     0.434900000000     0          
C866     C      0.997540000000     0.144880000000     0.392550000000     0          
H867     H      0.995800000000     0.165200000000     0.398100000000     0          
C868     C      0.983760000000     0.186390000000     0.343320000000     0          
H869     H      0.972500000000     0.189300000000     0.361000000000     0          
C870     C      0.983630000000     0.208420000000     0.321530000000     0          
H871     H      0.972400000000     0.226100000000     0.324400000000     0          
H872     H      0.111000000000     0.091000000000     0.487400000000     0          
H873     H      0.102700000000     0.094300000000     0.522000000000     0          
H874     H      0.086100000000     0.114400000000     0.497700000000     0          
O875     O      0.750960000000     0.078810000000     0.293490000000     0          
O876     O      0.709330000000     0.083110000000     0.250410000000     0          
C877     C      0.752470000000     0.123020000000     0.335490000000     0          
H878     H      0.754200000000     0.128600000000     0.315100000000     0          
C879     C      0.752460000000     0.144880000000     0.357450000000     0          
H880     H      0.754200000000     0.165200000000     0.351900000000     0          
C881     C      0.766240000000     0.186390000000     0.406680000000     0          
H882     H      0.777500000000     0.189300000000     0.389000000000     0          
C883     C      0.766370000000     0.208420000000     0.428470000000     0          
H884     H      0.777600000000     0.226100000000     0.425600000000     0          
H885     H      0.639000000000     0.091000000000     0.262600000000     0          
H886     H      0.647300000000     0.094300000000     0.228000000000     0          
H887     H      0.663900000000     0.114400000000     0.252300000000     0          
O888     O      0.750960000000     0.578810000000     0.793490000000     0          
O889     O      0.709330000000     0.583110000000     0.750410000000     0          
C890     C      0.752470000000     0.623020000000     0.835490000000     0          
H891     H      0.754200000000     0.628600000000     0.815100000000     0          
C892     C      0.752460000000     0.644880000000     0.857450000000     0          
H893     H      0.754200000000     0.665200000000     0.851900000000     0          
C894     C      0.766240000000     0.686390000000     0.906680000000     0          
H895     H      0.777500000000     0.689300000000     0.889000000000     0          
C896     C      0.766370000000     0.708420000000     0.928470000000     0          
H897     H      0.777600000000     0.726100000000     0.925600000000     0          
H898     H      0.639000000000     0.591000000000     0.762600000000     0          
H899     H      0.647300000000     0.594300000000     0.728000000000     0          
H900     H      0.663900000000     0.614400000000     0.752300000000     0          
O901     O      0.250960000000     0.078810000000     0.793490000000     0          
O902     O      0.209330000000     0.083110000000     0.750410000000     0          
C903     C      0.252470000000     0.123020000000     0.835490000000     0          
H904     H      0.254200000000     0.128600000000     0.815100000000     0          
C905     C      0.252460000000     0.144880000000     0.857450000000     0          
H906     H      0.254200000000     0.165200000000     0.851900000000     0          
C907     C      0.266240000000     0.186390000000     0.906680000000     0          
H908     H      0.277500000000     0.189300000000     0.889000000000     0          
C909     C      0.266370000000     0.208420000000     0.928470000000     0          
H910     H      0.277600000000     0.226100000000     0.925600000000     0          
H911     H      0.139000000000     0.091000000000     0.762600000000     0          
H912     H      0.147300000000     0.094300000000     0.728000000000     0          
H913     H      0.163900000000     0.114400000000     0.752300000000     0          
O914     O      0.250960000000     0.578810000000     0.293490000000     0          
O915     O      0.209330000000     0.583110000000     0.250410000000     0          
C916     C      0.252470000000     0.623020000000     0.335490000000     0          
H917     H      0.254200000000     0.628600000000     0.315100000000     0          
C918     C      0.252460000000     0.644880000000     0.357450000000     0          
H919     H      0.254200000000     0.665200000000     0.351900000000     0          
C920     C      0.266240000000     0.686390000000     0.406680000000     0          
H921     H      0.277500000000     0.689300000000     0.389000000000     0          
C922     C      0.266370000000     0.708420000000     0.428470000000     0          
H923     H      0.277600000000     0.726100000000     0.425600000000     0          
O924     O      0.171190000000     0.793490000000     0.999040000000     0          
O925     O      0.166890000000     0.750410000000     0.040670000000     0          
C926     C      0.126980000000     0.835490000000     0.997530000000     0          
H927     H      0.121400000000     0.815100000000     0.995800000000     0          
C928     C      0.105120000000     0.857450000000     0.997540000000     0          
H929     H      0.084800000000     0.851900000000     0.995800000000     0          
C930     C      0.063610000000     0.906680000000     0.983760000000     0          
H931     H      0.060700000000     0.889000000000     0.972500000000     0          
C932     C      0.041580000000     0.928470000000     0.983630000000     0          
H933     H      0.023900000000     0.925600000000     0.972400000000     0          
H934     H      0.159000000000     0.762600000000     0.111000000000     0          
H935     H      0.155700000000     0.728000000000     0.102700000000     0          
H936     H      0.135600000000     0.752300000000     0.086100000000     0          
O937     O      0.171190000000     0.293490000000     0.499040000000     0          
O938     O      0.166890000000     0.250410000000     0.540670000000     0          
C939     C      0.126980000000     0.335490000000     0.497530000000     0          
H940     H      0.121400000000     0.315100000000     0.495800000000     0          
C941     C      0.105120000000     0.357450000000     0.497540000000     0          
H942     H      0.084800000000     0.351900000000     0.495800000000     0          
C943     C      0.063610000000     0.406680000000     0.483760000000     0          
H944     H      0.060700000000     0.389000000000     0.472500000000     0          
C945     C      0.041580000000     0.428470000000     0.483630000000     0          
H946     H      0.023900000000     0.425600000000     0.472400000000     0          
H947     H      0.159000000000     0.262600000000     0.611000000000     0          
H948     H      0.155700000000     0.228000000000     0.602700000000     0          
H949     H      0.135600000000     0.252300000000     0.586100000000     0          
O950     O      0.671190000000     0.793490000000     0.499040000000     0          
O951     O      0.666890000000     0.750410000000     0.540670000000     0          
C952     C      0.626980000000     0.835490000000     0.497530000000     0          
H953     H      0.621400000000     0.815100000000     0.495800000000     0          
C954     C      0.605120000000     0.857450000000     0.497540000000     0          
H955     H      0.584800000000     0.851900000000     0.495800000000     0          
C956     C      0.563610000000     0.906680000000     0.483760000000     0          
H957     H      0.560700000000     0.889000000000     0.472500000000     0          
C958     C      0.541580000000     0.928470000000     0.483630000000     0          
H959     H      0.523900000000     0.925600000000     0.472400000000     0          
H960     H      0.659000000000     0.762600000000     0.611000000000     0          
H961     H      0.655700000000     0.728000000000     0.602700000000     0          
H962     H      0.635600000000     0.752300000000     0.586100000000     0          
O963     O      0.671190000000     0.293490000000     0.999040000000     0          
O964     O      0.666890000000     0.250410000000     0.040670000000     0          
C965     C      0.626980000000     0.335490000000     0.997530000000     0          
H966     H      0.621400000000     0.315100000000     0.995800000000     0          
C967     C      0.605120000000     0.357450000000     0.997540000000     0          
H968     H      0.584800000000     0.351900000000     0.995800000000     0          
C969     C      0.563610000000     0.406680000000     0.983760000000     0          
H970     H      0.560700000000     0.389000000000     0.972500000000     0          
C971     C      0.541580000000     0.428470000000     0.983630000000     0          
H972     H      0.523900000000     0.425600000000     0.972400000000     0          
H973     H      0.659000000000     0.262600000000     0.111000000000     0          
H974     H      0.655700000000     0.228000000000     0.102700000000     0          
H975     H      0.635600000000     0.252300000000     0.086100000000     0          
O976     O      0.671190000000     0.956510000000     0.250960000000     0          
O977     O      0.666890000000     0.999590000000     0.209330000000     0          
C978     C      0.626980000000     0.914510000000     0.252470000000     0          
H979     H      0.621400000000     0.934900000000     0.254200000000     0          
C980     C      0.605120000000     0.892550000000     0.252460000000     0          
H981     H      0.584800000000     0.898100000000     0.254200000000     0          
C982     C      0.563610000000     0.843320000000     0.266240000000     0          
H983     H      0.560700000000     0.861000000000     0.277500000000     0          
C984     C      0.541580000000     0.821530000000     0.266370000000     0          
H985     H      0.523900000000     0.824400000000     0.277600000000     0          
H986     H      0.659000000000     0.987400000000     0.139000000000     0          
H987     H      0.655700000000     0.022000000000     0.147300000000     0          
H988     H      0.635600000000     0.997700000000     0.163900000000     0          
O989     O      0.671190000000     0.456510000000     0.750960000000     0          
O990     O      0.666890000000     0.499590000000     0.709330000000     0          
C991     C      0.626980000000     0.414510000000     0.752470000000     0          
H992     H      0.621400000000     0.434900000000     0.754200000000     0          
C993     C      0.605120000000     0.392550000000     0.752460000000     0          
H994     H      0.584800000000     0.398100000000     0.754200000000     0          
C995     C      0.563610000000     0.343320000000     0.766240000000     0          
H996     H      0.560700000000     0.361000000000     0.777500000000     0          
C997     C      0.541580000000     0.321530000000     0.766370000000     0          
H998     H      0.523900000000     0.324400000000     0.777600000000     0          
H999     H      0.659000000000     0.487400000000     0.639000000000     0          
H1000    H      0.655700000000     0.522000000000     0.647300000000     0          
H1001    H      0.635600000000     0.497700000000     0.663900000000     0          
O1002    O      0.171190000000     0.956510000000     0.750960000000     0          
O1003    O      0.166890000000     0.999590000000     0.709330000000     0          
C1004    C      0.126980000000     0.914510000000     0.752470000000     0          
H1005    H      0.121400000000     0.934900000000     0.754200000000     0          
C1006    C      0.105120000000     0.892550000000     0.752460000000     0          
H1007    H      0.084800000000     0.898100000000     0.754200000000     0          
C1008    C      0.063610000000     0.843320000000     0.766240000000     0          
H1009    H      0.060700000000     0.861000000000     0.777500000000     0          
C1010    C      0.041580000000     0.821530000000     0.766370000000     0          
H1011    H      0.023900000000     0.824400000000     0.777600000000     0          
H1012    H      0.159000000000     0.987400000000     0.639000000000     0          
H1013    H      0.155700000000     0.022000000000     0.647300000000     0          
H1014    H      0.135600000000     0.997700000000     0.663900000000     0          
O1015    O      0.171190000000     0.456510000000     0.250960000000     0          
O1016    O      0.166890000000     0.499590000000     0.209330000000     0          
C1017    C      0.126980000000     0.414510000000     0.252470000000     0          
H1018    H      0.121400000000     0.434900000000     0.254200000000     0          
C1019    C      0.105120000000     0.392550000000     0.252460000000     0          
H1020    H      0.084800000000     0.398100000000     0.254200000000     0          
C1021    C      0.063610000000     0.343320000000     0.266240000000     0          
H1022    H      0.060700000000     0.361000000000     0.277500000000     0          
C1023    C      0.041580000000     0.321530000000     0.266370000000     0          
H1024    H      0.023900000000     0.324400000000     0.277600000000     0          
O1025    O      0.078810000000     0.293490000000     0.750960000000     0          
O1026    O      0.083110000000     0.250410000000     0.709330000000     0          
C1027    C      0.123020000000     0.335490000000     0.752470000000     0          
H1028    H      0.128600000000     0.315100000000     0.754200000000     0          
C1029    C      0.144880000000     0.357450000000     0.752460000000     0          
H1030    H      0.165200000000     0.351900000000     0.754200000000     0          
C1031    C      0.186390000000     0.406680000000     0.766240000000     0          
H1032    H      0.189300000000     0.389000000000     0.777500000000     0          
C1033    C      0.208420000000     0.428470000000     0.766370000000     0          
H1034    H      0.226100000000     0.425600000000     0.777600000000     0          
O1035    O      0.078810000000     0.793490000000     0.250960000000     0          
O1036    O      0.083110000000     0.750410000000     0.209330000000     0          
C1037    C      0.123020000000     0.835490000000     0.252470000000     0          
H1038    H      0.128600000000     0.815100000000     0.254200000000     0          
C1039    C      0.144880000000     0.857450000000     0.252460000000     0          
H1040    H      0.165200000000     0.851900000000     0.254200000000     0          
C1041    C      0.186390000000     0.906680000000     0.266240000000     0          
H1042    H      0.189300000000     0.889000000000     0.277500000000     0          
C1043    C      0.208420000000     0.928470000000     0.266370000000     0          
H1044    H      0.226100000000     0.925600000000     0.277600000000     0          
O1045    O      0.578810000000     0.293490000000     0.250960000000     0          
O1046    O      0.583110000000     0.250410000000     0.209330000000     0          
C1047    C      0.623020000000     0.335490000000     0.252470000000     0          
H1048    H      0.628600000000     0.315100000000     0.254200000000     0          
C1049    C      0.644880000000     0.357450000000     0.252460000000     0          
H1050    H      0.665200000000     0.351900000000     0.254200000000     0          
C1051    C      0.686390000000     0.406680000000     0.266240000000     0          
H1052    H      0.689300000000     0.389000000000     0.277500000000     0          
C1053    C      0.708420000000     0.428470000000     0.266370000000     0          
H1054    H      0.726100000000     0.425600000000     0.277600000000     0          
O1055    O      0.578810000000     0.793490000000     0.750960000000     0          
O1056    O      0.583110000000     0.750410000000     0.709330000000     0          
C1057    C      0.623020000000     0.835490000000     0.752470000000     0          
H1058    H      0.628600000000     0.815100000000     0.754200000000     0          
C1059    C      0.644880000000     0.857450000000     0.752460000000     0          
H1060    H      0.665200000000     0.851900000000     0.754200000000     0          
C1061    C      0.686390000000     0.906680000000     0.766240000000     0          
H1062    H      0.689300000000     0.889000000000     0.777500000000     0          
C1063    C      0.708420000000     0.928470000000     0.766370000000     0          
H1064    H      0.726100000000     0.925600000000     0.777600000000     0          
H1065    H      0.591000000000     0.762600000000     0.639000000000     0          
H1066    H      0.594300000000     0.728000000000     0.647300000000     0          
H1067    H      0.614400000000     0.752300000000     0.663900000000     0          
O1068    O      0.578810000000     0.456510000000     0.499040000000     0          
O1069    O      0.583110000000     0.499590000000     0.540670000000     0          
C1070    C      0.623020000000     0.414510000000     0.497530000000     0          
H1071    H      0.628600000000     0.434900000000     0.495800000000     0          
C1072    C      0.644880000000     0.392550000000     0.497540000000     0          
H1073    H      0.665200000000     0.398100000000     0.495800000000     0          
C1074    C      0.686390000000     0.343320000000     0.483760000000     0          
H1075    H      0.689300000000     0.361000000000     0.472500000000     0          
C1076    C      0.708420000000     0.321530000000     0.483630000000     0          
H1077    H      0.726100000000     0.324400000000     0.472400000000     0          
H1078    H      0.591000000000     0.487400000000     0.611000000000     0          
H1079    H      0.594300000000     0.522000000000     0.602700000000     0          
H1080    H      0.614400000000     0.497700000000     0.586100000000     0          
O1081    O      0.578810000000     0.956510000000     0.999040000000     0          
O1082    O      0.583110000000     0.999590000000     0.040670000000     0          
C1083    C      0.623020000000     0.914510000000     0.997530000000     0          
H1084    H      0.628600000000     0.934900000000     0.995800000000     0          
C1085    C      0.644880000000     0.892550000000     0.997540000000     0          
H1086    H      0.665200000000     0.898100000000     0.995800000000     0          
C1087    C      0.686390000000     0.843320000000     0.983760000000     0          
H1088    H      0.689300000000     0.861000000000     0.972500000000     0          
C1089    C      0.708420000000     0.821530000000     0.983630000000     0          
H1090    H      0.726100000000     0.824400000000     0.972400000000     0          
O1091    O      0.078810000000     0.456510000000     0.999040000000     0          
O1092    O      0.083110000000     0.499590000000     0.040670000000     0          
C1093    C      0.123020000000     0.414510000000     0.997530000000     0          
H1094    H      0.128600000000     0.434900000000     0.995800000000     0          
C1095    C      0.144880000000     0.392550000000     0.997540000000     0          
H1096    H      0.165200000000     0.398100000000     0.995800000000     0          
C1097    C      0.186390000000     0.343320000000     0.983760000000     0          
H1098    H      0.189300000000     0.361000000000     0.972500000000     0          
C1099    C      0.208420000000     0.321530000000     0.983630000000     0          
H1100    H      0.226100000000     0.324400000000     0.972400000000     0          
H1101    H      0.094300000000     0.522000000000     0.102700000000     0          
O1102    O      0.078810000000     0.956510000000     0.499040000000     0          
O1103    O      0.083110000000     0.999590000000     0.540670000000     0          
C1104    C      0.123020000000     0.914510000000     0.497530000000     0          
H1105    H      0.128600000000     0.934900000000     0.495800000000     0          
C1106    C      0.144880000000     0.892550000000     0.497540000000     0          
H1107    H      0.165200000000     0.898100000000     0.495800000000     0          
C1108    C      0.186390000000     0.843320000000     0.483760000000     0          
H1109    H      0.189300000000     0.861000000000     0.472500000000     0          
C1110    C      0.208420000000     0.821530000000     0.483630000000     0          
H1111    H      0.226100000000     0.824400000000     0.472400000000     0          
H1112    H      0.091000000000     0.987400000000     0.611000000000     0          
H1113    H      0.094300000000     0.022000000000     0.602700000000     0          
H1114    H      0.114400000000     0.997700000000     0.586100000000     0          
O1115    O      0.499040000000     0.456510000000     0.578810000000     0          
O1116    O      0.540670000000     0.499590000000     0.583110000000     0          
C1117    C      0.497530000000     0.414510000000     0.623020000000     0          
H1118    H      0.495800000000     0.434900000000     0.628600000000     0          
C1119    C      0.497540000000     0.392550000000     0.644880000000     0          
H1120    H      0.495800000000     0.398100000000     0.665200000000     0          
C1121    C      0.483760000000     0.343320000000     0.686390000000     0          
H1122    H      0.472500000000     0.361000000000     0.689300000000     0          
C1123    C      0.483630000000     0.321530000000     0.708420000000     0          
H1124    H      0.472400000000     0.324400000000     0.726100000000     0          
O1125    O      0.499040000000     0.956510000000     0.078810000000     0          
O1126    O      0.540670000000     0.999590000000     0.083110000000     0          
C1127    C      0.497530000000     0.914510000000     0.123020000000     0          
H1128    H      0.495800000000     0.934900000000     0.128600000000     0          
C1129    C      0.497540000000     0.892550000000     0.144880000000     0          
H1130    H      0.495800000000     0.898100000000     0.165200000000     0          
C1131    C      0.483760000000     0.843320000000     0.186390000000     0          
H1132    H      0.472500000000     0.861000000000     0.189300000000     0          
C1133    C      0.483630000000     0.821530000000     0.208420000000     0          
H1134    H      0.472400000000     0.824400000000     0.226100000000     0          
H1135    H      0.611000000000     0.987400000000     0.091000000000     0          
H1136    H      0.602700000000     0.022000000000     0.094300000000     0          
H1137    H      0.586100000000     0.997700000000     0.114400000000     0          
O1138    O      0.999040000000     0.456510000000     0.078810000000     0          
O1139    O      0.040670000000     0.499590000000     0.083110000000     0          
C1140    C      0.997530000000     0.414510000000     0.123020000000     0          
H1141    H      0.995800000000     0.434900000000     0.128600000000     0          
C1142    C      0.997540000000     0.392550000000     0.144880000000     0          
H1143    H      0.995800000000     0.398100000000     0.165200000000     0          
C1144    C      0.983760000000     0.343320000000     0.186390000000     0          
H1145    H      0.972500000000     0.361000000000     0.189300000000     0          
C1146    C      0.983630000000     0.321530000000     0.208420000000     0          
H1147    H      0.972400000000     0.324400000000     0.226100000000     0          
H1148    H      0.111000000000     0.487400000000     0.091000000000     0          
H1149    H      0.086100000000     0.497700000000     0.114400000000     0          
O1150    O      0.999040000000     0.956510000000     0.578810000000     0          
O1151    O      0.040670000000     0.999590000000     0.583110000000     0          
C1152    C      0.997530000000     0.914510000000     0.623020000000     0          
H1153    H      0.995800000000     0.934900000000     0.628600000000     0          
C1154    C      0.997540000000     0.892550000000     0.644880000000     0          
H1155    H      0.995800000000     0.898100000000     0.665200000000     0          
C1156    C      0.983760000000     0.843320000000     0.686390000000     0          
H1157    H      0.972500000000     0.861000000000     0.689300000000     0          
C1158    C      0.983630000000     0.821530000000     0.708420000000     0          
H1159    H      0.972400000000     0.824400000000     0.726100000000     0          
O1160    O      0.750960000000     0.293490000000     0.078810000000     0          
O1161    O      0.709330000000     0.250410000000     0.083110000000     0          
C1162    C      0.752470000000     0.335490000000     0.123020000000     0          
H1163    H      0.754200000000     0.315100000000     0.128600000000     0          
C1164    C      0.752460000000     0.357450000000     0.144880000000     0          
H1165    H      0.754200000000     0.351900000000     0.165200000000     0          
C1166    C      0.766240000000     0.406680000000     0.186390000000     0          
H1167    H      0.777500000000     0.389000000000     0.189300000000     0          
C1168    C      0.766370000000     0.428470000000     0.208420000000     0          
H1169    H      0.777600000000     0.425600000000     0.226100000000     0          
O1170    O      0.750960000000     0.793490000000     0.578810000000     0          
O1171    O      0.709330000000     0.750410000000     0.583110000000     0          
C1172    C      0.752470000000     0.835490000000     0.623020000000     0          
H1173    H      0.754200000000     0.815100000000     0.628600000000     0          
C1174    C      0.752460000000     0.857450000000     0.644880000000     0          
H1175    H      0.754200000000     0.851900000000     0.665200000000     0          
C1176    C      0.766240000000     0.906680000000     0.686390000000     0          
H1177    H      0.777500000000     0.889000000000     0.689300000000     0          
C1178    C      0.766370000000     0.928470000000     0.708420000000     0          
H1179    H      0.777600000000     0.925600000000     0.726100000000     0          
O1180    O      0.250960000000     0.293490000000     0.578810000000     0          
O1181    O      0.209330000000     0.250410000000     0.583110000000     0          
C1182    C      0.252470000000     0.335490000000     0.623020000000     0          
H1183    H      0.254200000000     0.315100000000     0.628600000000     0          
C1184    C      0.252460000000     0.357450000000     0.644880000000     0          
H1185    H      0.254200000000     0.351900000000     0.665200000000     0          
C1186    C      0.266240000000     0.406680000000     0.686390000000     0          
H1187    H      0.277500000000     0.389000000000     0.689300000000     0          
C1188    C      0.266370000000     0.428470000000     0.708420000000     0          
H1189    H      0.277600000000     0.425600000000     0.726100000000     0          
O1190    O      0.250960000000     0.793490000000     0.078810000000     0          
O1191    O      0.209330000000     0.750410000000     0.083110000000     0          
C1192    C      0.252470000000     0.835490000000     0.123020000000     0          
H1193    H      0.254200000000     0.815100000000     0.128600000000     0          
C1194    C      0.252460000000     0.857450000000     0.144880000000     0          
H1195    H      0.254200000000     0.851900000000     0.165200000000     0          
C1196    C      0.266240000000     0.906680000000     0.186390000000     0          
H1197    H      0.277500000000     0.889000000000     0.189300000000     0          
C1198    C      0.266370000000     0.928470000000     0.208420000000     0          
H1199    H      0.277600000000     0.925600000000     0.226100000000     0          
O1200    O      0.250960000000     0.956510000000     0.671190000000     0          
O1201    O      0.209330000000     0.999590000000     0.666890000000     0          
C1202    C      0.252470000000     0.914510000000     0.626980000000     0          
H1203    H      0.254200000000     0.934900000000     0.621400000000     0          
C1204    C      0.252460000000     0.892550000000     0.605120000000     0          
H1205    H      0.254200000000     0.898100000000     0.584800000000     0          
C1206    C      0.266240000000     0.843320000000     0.563610000000     0          
H1207    H      0.277500000000     0.861000000000     0.560700000000     0          
C1208    C      0.266370000000     0.821530000000     0.541580000000     0          
H1209    H      0.277600000000     0.824400000000     0.523900000000     0          
O1210    O      0.250960000000     0.456510000000     0.171190000000     0          
O1211    O      0.209330000000     0.499590000000     0.166890000000     0          
C1212    C      0.252470000000     0.414510000000     0.126980000000     0          
H1213    H      0.254200000000     0.434900000000     0.121400000000     0          
C1214    C      0.252460000000     0.392550000000     0.105120000000     0          
H1215    H      0.254200000000     0.398100000000     0.084800000000     0          
C1216    C      0.266240000000     0.343320000000     0.063610000000     0          
H1217    H      0.277500000000     0.361000000000     0.060700000000     0          
C1218    C      0.266370000000     0.321530000000     0.041580000000     0          
H1219    H      0.277600000000     0.324400000000     0.023900000000     0          
H1220    H      0.139000000000     0.487400000000     0.159000000000     0          
H1221    H      0.147300000000     0.522000000000     0.155700000000     0          
H1222    H      0.163900000000     0.497700000000     0.135600000000     0          
O1223    O      0.750960000000     0.956510000000     0.171190000000     0          
O1224    O      0.709330000000     0.999590000000     0.166890000000     0          
C1225    C      0.752470000000     0.914510000000     0.126980000000     0          
H1226    H      0.754200000000     0.934900000000     0.121400000000     0          
C1227    C      0.752460000000     0.892550000000     0.105120000000     0          
H1228    H      0.754200000000     0.898100000000     0.084800000000     0          
C1229    C      0.766240000000     0.843320000000     0.063610000000     0          
H1230    H      0.777500000000     0.861000000000     0.060700000000     0          
C1231    C      0.766370000000     0.821530000000     0.041580000000     0          
H1232    H      0.777600000000     0.824400000000     0.023900000000     0          
O1233    O      0.750960000000     0.456510000000     0.671190000000     0          
O1234    O      0.709330000000     0.499590000000     0.666890000000     0          
C1235    C      0.752470000000     0.414510000000     0.626980000000     0          
H1236    H      0.754200000000     0.434900000000     0.621400000000     0          
C1237    C      0.752460000000     0.392550000000     0.605120000000     0          
H1238    H      0.754200000000     0.398100000000     0.584800000000     0          
C1239    C      0.766240000000     0.343320000000     0.563610000000     0          
H1240    H      0.777500000000     0.361000000000     0.560700000000     0          
C1241    C      0.766370000000     0.321530000000     0.541580000000     0          
H1242    H      0.777600000000     0.324400000000     0.523900000000     0          
O1243    O      0.999040000000     0.793490000000     0.171190000000     0          
O1244    O      0.040670000000     0.750410000000     0.166890000000     0          
C1245    C      0.997530000000     0.835490000000     0.126980000000     0          
H1246    H      0.995800000000     0.815100000000     0.121400000000     0          
C1247    C      0.997540000000     0.857450000000     0.105120000000     0          
H1248    H      0.995800000000     0.851900000000     0.084800000000     0          
C1249    C      0.983760000000     0.906680000000     0.063610000000     0          
H1250    H      0.972500000000     0.889000000000     0.060700000000     0          
C1251    C      0.983630000000     0.928470000000     0.041580000000     0          
H1252    H      0.972400000000     0.925600000000     0.023900000000     0          
H1253    H      0.111000000000     0.762600000000     0.159000000000     0          
H1254    H      0.102700000000     0.728000000000     0.155700000000     0          
H1255    H      0.086100000000     0.752300000000     0.135600000000     0          
O1256    O      0.999040000000     0.293490000000     0.671190000000     0          
O1257    O      0.040670000000     0.250410000000     0.666890000000     0          
C1258    C      0.997530000000     0.335490000000     0.626980000000     0          
H1259    H      0.995800000000     0.315100000000     0.621400000000     0          
C1260    C      0.997540000000     0.357450000000     0.605120000000     0          
H1261    H      0.995800000000     0.351900000000     0.584800000000     0          
C1262    C      0.983760000000     0.406680000000     0.563610000000     0          
H1263    H      0.972500000000     0.389000000000     0.560700000000     0          
C1264    C      0.983630000000     0.428470000000     0.541580000000     0          
H1265    H      0.972400000000     0.425600000000     0.523900000000     0          
H1266    H      0.111000000000     0.262600000000     0.659000000000     0          
H1267    H      0.102700000000     0.228000000000     0.655700000000     0          
H1268    H      0.086100000000     0.252300000000     0.635600000000     0          
O1269    O      0.499040000000     0.793490000000     0.671190000000     0          
O1270    O      0.540670000000     0.750410000000     0.666890000000     0          
C1271    C      0.497530000000     0.835490000000     0.626980000000     0          
H1272    H      0.495800000000     0.815100000000     0.621400000000     0          
C1273    C      0.497540000000     0.857450000000     0.605120000000     0          
H1274    H      0.495800000000     0.851900000000     0.584800000000     0          
C1275    C      0.483760000000     0.906680000000     0.563610000000     0          
H1276    H      0.472500000000     0.889000000000     0.560700000000     0          
C1277    C      0.483630000000     0.928470000000     0.541580000000     0          
H1278    H      0.472400000000     0.925600000000     0.523900000000     0          
O1279    O      0.499040000000     0.293490000000     0.171190000000     0          
O1280    O      0.540670000000     0.250410000000     0.166890000000     0          
C1281    C      0.497530000000     0.335490000000     0.126980000000     0          
H1282    H      0.495800000000     0.315100000000     0.121400000000     0          
C1283    C      0.497540000000     0.357450000000     0.105120000000     0          
H1284    H      0.495800000000     0.351900000000     0.084800000000     0          
C1285    C      0.483760000000     0.406680000000     0.063610000000     0          
H1286    H      0.472500000000     0.389000000000     0.060700000000     0          
C1287    C      0.483630000000     0.428470000000     0.041580000000     0          
H1288    H      0.472400000000     0.425600000000     0.023900000000     0          
H1289    H      0.611000000000     0.262600000000     0.159000000000     0          
H1290    H      0.602700000000     0.228000000000     0.155700000000     0          
H1291    H      0.586100000000     0.252300000000     0.135600000000     0          
O1292    O      0.578810000000     0.499040000000     0.456510000000     0          
O1293    O      0.583110000000     0.540670000000     0.499590000000     0          
C1294    C      0.623020000000     0.497530000000     0.414510000000     0          
H1295    H      0.628600000000     0.495800000000     0.434900000000     0          
C1296    C      0.644880000000     0.497540000000     0.392550000000     0          
H1297    H      0.665200000000     0.495800000000     0.398100000000     0          
C1298    C      0.686390000000     0.483760000000     0.343320000000     0          
H1299    H      0.689300000000     0.472500000000     0.361000000000     0          
C1300    C      0.708420000000     0.483630000000     0.321530000000     0          
H1301    H      0.726100000000     0.472400000000     0.324400000000     0          
O1302    O      0.578810000000     0.999040000000     0.956510000000     0          
O1303    O      0.583110000000     0.040670000000     0.999590000000     0          
C1304    C      0.623020000000     0.997530000000     0.914510000000     0          
H1305    H      0.628600000000     0.995800000000     0.934900000000     0          
C1306    C      0.644880000000     0.997540000000     0.892550000000     0          
H1307    H      0.665200000000     0.995800000000     0.898100000000     0          
C1308    C      0.686390000000     0.983760000000     0.843320000000     0          
H1309    H      0.689300000000     0.972500000000     0.861000000000     0          
C1310    C      0.708420000000     0.983630000000     0.821530000000     0          
H1311    H      0.726100000000     0.972400000000     0.824400000000     0          
H1312    H      0.591000000000     0.111000000000     0.987400000000     0          
H1313    H      0.594300000000     0.102700000000     0.022000000000     0          
H1314    H      0.614400000000     0.086100000000     0.997700000000     0          
O1315    O      0.078810000000     0.499040000000     0.956510000000     0          
O1316    O      0.083110000000     0.540670000000     0.999590000000     0          
C1317    C      0.123020000000     0.497530000000     0.914510000000     0          
H1318    H      0.128600000000     0.495800000000     0.934900000000     0          
C1319    C      0.144880000000     0.497540000000     0.892550000000     0          
H1320    H      0.165200000000     0.495800000000     0.898100000000     0          
C1321    C      0.186390000000     0.483760000000     0.843320000000     0          
H1322    H      0.189300000000     0.472500000000     0.861000000000     0          
C1323    C      0.208420000000     0.483630000000     0.821530000000     0          
H1324    H      0.226100000000     0.472400000000     0.824400000000     0          
O1325    O      0.078810000000     0.999040000000     0.456510000000     0          
O1326    O      0.083110000000     0.040670000000     0.499590000000     0          
C1327    C      0.123020000000     0.997530000000     0.414510000000     0          
H1328    H      0.128600000000     0.995800000000     0.434900000000     0          
C1329    C      0.144880000000     0.997540000000     0.392550000000     0          
H1330    H      0.165200000000     0.995800000000     0.398100000000     0          
C1331    C      0.186390000000     0.983760000000     0.343320000000     0          
H1332    H      0.189300000000     0.972500000000     0.361000000000     0          
C1333    C      0.208420000000     0.983630000000     0.321530000000     0          
H1334    H      0.226100000000     0.972400000000     0.324400000000     0          
O1335    O      0.078810000000     0.750960000000     0.293490000000     0          
O1336    O      0.083110000000     0.709330000000     0.250410000000     0          
C1337    C      0.123020000000     0.752470000000     0.335490000000     0          
H1338    H      0.128600000000     0.754200000000     0.315100000000     0          
C1339    C      0.144880000000     0.752460000000     0.357450000000     0          
H1340    H      0.165200000000     0.754200000000     0.351900000000     0          
C1341    C      0.186390000000     0.766240000000     0.406680000000     0          
H1342    H      0.189300000000     0.777500000000     0.389000000000     0          
C1343    C      0.208420000000     0.766370000000     0.428470000000     0          
H1344    H      0.226100000000     0.777600000000     0.425600000000     0          
O1345    O      0.078810000000     0.250960000000     0.793490000000     0          
O1346    O      0.083110000000     0.209330000000     0.750410000000     0          
C1347    C      0.123020000000     0.252470000000     0.835490000000     0          
H1348    H      0.128600000000     0.254200000000     0.815100000000     0          
C1349    C      0.144880000000     0.252460000000     0.857450000000     0          
H1350    H      0.165200000000     0.254200000000     0.851900000000     0          
C1351    C      0.186390000000     0.266240000000     0.906680000000     0          
H1352    H      0.189300000000     0.277500000000     0.889000000000     0          
C1353    C      0.208420000000     0.266370000000     0.928470000000     0          
H1354    H      0.226100000000     0.277600000000     0.925600000000     0          
O1355    O      0.578810000000     0.750960000000     0.793490000000     0          
O1356    O      0.583110000000     0.709330000000     0.750410000000     0          
C1357    C      0.623020000000     0.752470000000     0.835490000000     0          
H1358    H      0.628600000000     0.754200000000     0.815100000000     0          
C1359    C      0.644880000000     0.752460000000     0.857450000000     0          
H1360    H      0.665200000000     0.754200000000     0.851900000000     0          
C1361    C      0.686390000000     0.766240000000     0.906680000000     0          
H1362    H      0.689300000000     0.777500000000     0.889000000000     0          
C1363    C      0.708420000000     0.766370000000     0.928470000000     0          
H1364    H      0.726100000000     0.777600000000     0.925600000000     0          
H1365    H      0.591000000000     0.639000000000     0.762600000000     0          
H1366    H      0.594300000000     0.647300000000     0.728000000000     0          
H1367    H      0.614400000000     0.663900000000     0.752300000000     0          
O1368    O      0.578810000000     0.250960000000     0.293490000000     0          
O1369    O      0.583110000000     0.209330000000     0.250410000000     0          
C1370    C      0.623020000000     0.252470000000     0.335490000000     0          
H1371    H      0.628600000000     0.254200000000     0.315100000000     0          
C1372    C      0.644880000000     0.252460000000     0.357450000000     0          
H1373    H      0.665200000000     0.254200000000     0.351900000000     0          
C1374    C      0.686390000000     0.266240000000     0.406680000000     0          
H1375    H      0.689300000000     0.277500000000     0.389000000000     0          
C1376    C      0.708420000000     0.266370000000     0.428470000000     0          
H1377    H      0.726100000000     0.277600000000     0.425600000000     0          
H1378    H      0.591000000000     0.139000000000     0.262600000000     0          
H1379    H      0.594300000000     0.147300000000     0.228000000000     0          
H1380    H      0.614400000000     0.163900000000     0.252300000000     0          
O1381    O      0.671190000000     0.250960000000     0.956510000000     0          
O1382    O      0.666890000000     0.209330000000     0.999590000000     0          
C1383    C      0.626980000000     0.252470000000     0.914510000000     0          
H1384    H      0.621400000000     0.254200000000     0.934900000000     0          
C1385    C      0.605120000000     0.252460000000     0.892550000000     0          
H1386    H      0.584800000000     0.254200000000     0.898100000000     0          
C1387    C      0.563610000000     0.266240000000     0.843320000000     0          
H1388    H      0.560700000000     0.277500000000     0.861000000000     0          
C1389    C      0.541580000000     0.266370000000     0.821530000000     0          
H1390    H      0.523900000000     0.277600000000     0.824400000000     0          
H1391    H      0.659000000000     0.139000000000     0.987400000000     0          
H1392    H      0.655700000000     0.147300000000     0.022000000000     0          
H1393    H      0.635600000000     0.163900000000     0.997700000000     0          
O1394    O      0.671190000000     0.750960000000     0.456510000000     0          
O1395    O      0.666890000000     0.709330000000     0.499590000000     0          
C1396    C      0.626980000000     0.752470000000     0.414510000000     0          
H1397    H      0.621400000000     0.754200000000     0.434900000000     0          
C1398    C      0.605120000000     0.752460000000     0.392550000000     0          
H1399    H      0.584800000000     0.754200000000     0.398100000000     0          
C1400    C      0.563610000000     0.766240000000     0.343320000000     0          
H1401    H      0.560700000000     0.777500000000     0.361000000000     0          
C1402    C      0.541580000000     0.766370000000     0.321530000000     0          
H1403    H      0.523900000000     0.777600000000     0.324400000000     0          
O1404    O      0.171190000000     0.250960000000     0.456510000000     0          
O1405    O      0.166890000000     0.209330000000     0.499590000000     0          
C1406    C      0.126980000000     0.252470000000     0.414510000000     0          
H1407    H      0.121400000000     0.254200000000     0.434900000000     0          
C1408    C      0.105120000000     0.252460000000     0.392550000000     0          
H1409    H      0.084800000000     0.254200000000     0.398100000000     0          
C1410    C      0.063610000000     0.266240000000     0.343320000000     0          
H1411    H      0.060700000000     0.277500000000     0.361000000000     0          
C1412    C      0.041580000000     0.266370000000     0.321530000000     0          
H1413    H      0.023900000000     0.277600000000     0.324400000000     0          
H1414    H      0.159000000000     0.139000000000     0.487400000000     0          
H1415    H      0.155700000000     0.147300000000     0.522000000000     0          
H1416    H      0.135600000000     0.163900000000     0.497700000000     0          
O1417    O      0.171190000000     0.750960000000     0.956510000000     0          
O1418    O      0.166890000000     0.709330000000     0.999590000000     0          
C1419    C      0.126980000000     0.752470000000     0.914510000000     0          
H1420    H      0.121400000000     0.754200000000     0.934900000000     0          
C1421    C      0.105120000000     0.752460000000     0.892550000000     0          
H1422    H      0.084800000000     0.754200000000     0.898100000000     0          
C1423    C      0.063610000000     0.766240000000     0.843320000000     0          
H1424    H      0.060700000000     0.777500000000     0.861000000000     0          
C1425    C      0.041580000000     0.766370000000     0.821530000000     0          
H1426    H      0.023900000000     0.777600000000     0.824400000000     0          
H1427    H      0.159000000000     0.639000000000     0.987400000000     0          
H1428    H      0.155700000000     0.647300000000     0.022000000000     0          
H1429    H      0.135600000000     0.663900000000     0.997700000000     0          
O1430    O      0.171190000000     0.999040000000     0.793490000000     0          
O1431    O      0.166890000000     0.040670000000     0.750410000000     0          
C1432    C      0.126980000000     0.997530000000     0.835490000000     0          
H1433    H      0.121400000000     0.995800000000     0.815100000000     0          
C1434    C      0.105120000000     0.997540000000     0.857450000000     0          
H1435    H      0.084800000000     0.995800000000     0.851900000000     0          
C1436    C      0.063610000000     0.983760000000     0.906680000000     0          
H1437    H      0.060700000000     0.972500000000     0.889000000000     0          
C1438    C      0.041580000000     0.983630000000     0.928470000000     0          
H1439    H      0.023900000000     0.972400000000     0.925600000000     0          
O1440    O      0.171190000000     0.499040000000     0.293490000000     0          
O1441    O      0.166890000000     0.540670000000     0.250410000000     0          
C1442    C      0.126980000000     0.497530000000     0.335490000000     0          
H1443    H      0.121400000000     0.495800000000     0.315100000000     0          
C1444    C      0.105120000000     0.497540000000     0.357450000000     0          
H1445    H      0.084800000000     0.495800000000     0.351900000000     0          
C1446    C      0.063610000000     0.483760000000     0.406680000000     0          
H1447    H      0.060700000000     0.472500000000     0.389000000000     0          
C1448    C      0.041580000000     0.483630000000     0.428470000000     0          
H1449    H      0.023900000000     0.472400000000     0.425600000000     0          
H1450    H      0.159000000000     0.611000000000     0.262600000000     0          
H1451    H      0.155700000000     0.602700000000     0.228000000000     0          
H1452    H      0.135600000000     0.586100000000     0.252300000000     0          
O1453    O      0.671190000000     0.999040000000     0.293490000000     0          
O1454    O      0.666890000000     0.040670000000     0.250410000000     0          
C1455    C      0.626980000000     0.997530000000     0.335490000000     0          
H1456    H      0.621400000000     0.995800000000     0.315100000000     0          
C1457    C      0.605120000000     0.997540000000     0.357450000000     0          
H1458    H      0.584800000000     0.995800000000     0.351900000000     0          
C1459    C      0.563610000000     0.983760000000     0.406680000000     0          
H1460    H      0.560700000000     0.972500000000     0.389000000000     0          
C1461    C      0.541580000000     0.983630000000     0.428470000000     0          
H1462    H      0.523900000000     0.972400000000     0.425600000000     0          
O1463    O      0.671190000000     0.499040000000     0.793490000000     0          
O1464    O      0.666890000000     0.540670000000     0.750410000000     0          
C1465    C      0.626980000000     0.497530000000     0.835490000000     0          
H1466    H      0.621400000000     0.495800000000     0.815100000000     0          
C1467    C      0.605120000000     0.497540000000     0.857450000000     0          
H1468    H      0.584800000000     0.495800000000     0.851900000000     0          
C1469    C      0.563610000000     0.483760000000     0.906680000000     0          
H1470    H      0.560700000000     0.472500000000     0.889000000000     0          
C1471    C      0.541580000000     0.483630000000     0.928470000000     0          
H1472    H      0.523900000000     0.472400000000     0.925600000000     0          
O1473    O      0.456510000000     0.578810000000     0.499040000000     0          
O1474    O      0.499590000000     0.583110000000     0.540670000000     0          
C1475    C      0.414510000000     0.623020000000     0.497530000000     0          
H1476    H      0.434900000000     0.628600000000     0.495800000000     0          
C1477    C      0.392550000000     0.644880000000     0.497540000000     0          
H1478    H      0.398100000000     0.665200000000     0.495800000000     0          
C1479    C      0.343320000000     0.686390000000     0.483760000000     0          
H1480    H      0.361000000000     0.689300000000     0.472500000000     0          
C1481    C      0.321530000000     0.708420000000     0.483630000000     0          
H1482    H      0.324400000000     0.726100000000     0.472400000000     0          
O1483    O      0.456510000000     0.078810000000     0.999040000000     0          
O1484    O      0.499590000000     0.083110000000     0.040670000000     0          
C1485    C      0.414510000000     0.123020000000     0.997530000000     0          
H1486    H      0.434900000000     0.128600000000     0.995800000000     0          
C1487    C      0.392550000000     0.144880000000     0.997540000000     0          
H1488    H      0.398100000000     0.165200000000     0.995800000000     0          
C1489    C      0.343320000000     0.186390000000     0.983760000000     0          
H1490    H      0.361000000000     0.189300000000     0.972500000000     0          
C1491    C      0.321530000000     0.208420000000     0.983630000000     0          
H1492    H      0.324400000000     0.226100000000     0.972400000000     0          
O1493    O      0.956510000000     0.578810000000     0.999040000000     0          
O1494    O      0.999590000000     0.583110000000     0.040670000000     0          
C1495    C      0.914510000000     0.623020000000     0.997530000000     0          
H1496    H      0.934900000000     0.628600000000     0.995800000000     0          
C1497    C      0.892550000000     0.644880000000     0.997540000000     0          
H1498    H      0.898100000000     0.665200000000     0.995800000000     0          
C1499    C      0.843320000000     0.686390000000     0.983760000000     0          
H1500    H      0.861000000000     0.689300000000     0.972500000000     0          
C1501    C      0.821530000000     0.708420000000     0.983630000000     0          
H1502    H      0.824400000000     0.726100000000     0.972400000000     0          
O1503    O      0.956510000000     0.078810000000     0.499040000000     0          
O1504    O      0.999590000000     0.083110000000     0.540670000000     0          
C1505    C      0.914510000000     0.123020000000     0.497530000000     0          
H1506    H      0.934900000000     0.128600000000     0.495800000000     0          
C1507    C      0.892550000000     0.144880000000     0.497540000000     0          
H1508    H      0.898100000000     0.165200000000     0.495800000000     0          
C1509    C      0.843320000000     0.186390000000     0.483760000000     0          
H1510    H      0.861000000000     0.189300000000     0.472500000000     0          
C1511    C      0.821530000000     0.208420000000     0.483630000000     0          
H1512    H      0.824400000000     0.226100000000     0.472400000000     0          
O1513    O      0.293490000000     0.078810000000     0.750960000000     0          
O1514    O      0.250410000000     0.083110000000     0.709330000000     0          
C1515    C      0.335490000000     0.123020000000     0.752470000000     0          
H1516    H      0.315100000000     0.128600000000     0.754200000000     0          
C1517    C      0.357450000000     0.144880000000     0.752460000000     0          
H1518    H      0.351900000000     0.165200000000     0.754200000000     0          
C1519    C      0.406680000000     0.186390000000     0.766240000000     0          
H1520    H      0.389000000000     0.189300000000     0.777500000000     0          
C1521    C      0.428470000000     0.208420000000     0.766370000000     0          
H1522    H      0.425600000000     0.226100000000     0.777600000000     0          
O1523    O      0.293490000000     0.578810000000     0.250960000000     0          
O1524    O      0.250410000000     0.583110000000     0.209330000000     0          
C1525    C      0.335490000000     0.623020000000     0.252470000000     0          
H1526    H      0.315100000000     0.628600000000     0.254200000000     0          
C1527    C      0.357450000000     0.644880000000     0.252460000000     0          
H1528    H      0.351900000000     0.665200000000     0.254200000000     0          
C1529    C      0.406680000000     0.686390000000     0.266240000000     0          
H1530    H      0.389000000000     0.689300000000     0.277500000000     0          
C1531    C      0.428470000000     0.708420000000     0.266370000000     0          
H1532    H      0.425600000000     0.726100000000     0.277600000000     0          
H1533    H      0.262600000000     0.591000000000     0.139000000000     0          
H1534    H      0.228000000000     0.594300000000     0.147300000000     0          
H1535    H      0.252300000000     0.614400000000     0.163900000000     0          
O1536    O      0.793490000000     0.078810000000     0.250960000000     0          
O1537    O      0.750410000000     0.083110000000     0.209330000000     0          
C1538    C      0.835490000000     0.123020000000     0.252470000000     0          
H1539    H      0.815100000000     0.128600000000     0.254200000000     0          
C1540    C      0.857450000000     0.144880000000     0.252460000000     0          
H1541    H      0.851900000000     0.165200000000     0.254200000000     0          
C1542    C      0.906680000000     0.186390000000     0.266240000000     0          
H1543    H      0.889000000000     0.189300000000     0.277500000000     0          
C1544    C      0.928470000000     0.208420000000     0.266370000000     0          
H1545    H      0.925600000000     0.226100000000     0.277600000000     0          
O1546    O      0.793490000000     0.578810000000     0.750960000000     0          
O1547    O      0.750410000000     0.583110000000     0.709330000000     0          
C1548    C      0.835490000000     0.623020000000     0.752470000000     0          
H1549    H      0.815100000000     0.628600000000     0.754200000000     0          
C1550    C      0.857450000000     0.644880000000     0.752460000000     0          
H1551    H      0.851900000000     0.665200000000     0.754200000000     0          
C1552    C      0.906680000000     0.686390000000     0.766240000000     0          
H1553    H      0.889000000000     0.689300000000     0.777500000000     0          
C1554    C      0.928470000000     0.708420000000     0.766370000000     0          
H1555    H      0.925600000000     0.726100000000     0.777600000000     0          
H1556    H      0.762600000000     0.591000000000     0.639000000000     0          
H1557    H      0.728000000000     0.594300000000     0.647300000000     0          
H1558    H      0.752300000000     0.614400000000     0.663900000000     0          
O1559    O      0.956510000000     0.671190000000     0.250960000000     0          
O1560    O      0.999590000000     0.666890000000     0.209330000000     0          
C1561    C      0.914510000000     0.626980000000     0.252470000000     0          
H1562    H      0.934900000000     0.621400000000     0.254200000000     0          
C1563    C      0.892550000000     0.605120000000     0.252460000000     0          
H1564    H      0.898100000000     0.584800000000     0.254200000000     0          
C1565    C      0.843320000000     0.563610000000     0.266240000000     0          
H1566    H      0.861000000000     0.560700000000     0.277500000000     0          
C1567    C      0.821530000000     0.541580000000     0.266370000000     0          
H1568    H      0.824400000000     0.523900000000     0.277600000000     0          
O1569    O      0.956510000000     0.171190000000     0.750960000000     0          
O1570    O      0.999590000000     0.166890000000     0.709330000000     0          
C1571    C      0.914510000000     0.126980000000     0.752470000000     0          
H1572    H      0.934900000000     0.121400000000     0.754200000000     0          
C1573    C      0.892550000000     0.105120000000     0.752460000000     0          
H1574    H      0.898100000000     0.084800000000     0.754200000000     0          
C1575    C      0.843320000000     0.063610000000     0.766240000000     0          
H1576    H      0.861000000000     0.060700000000     0.777500000000     0          
C1577    C      0.821530000000     0.041580000000     0.766370000000     0          
H1578    H      0.824400000000     0.023900000000     0.777600000000     0          
H1579    H      0.987400000000     0.159000000000     0.639000000000     0          
H1580    H      0.022000000000     0.155700000000     0.647300000000     0          
H1581    H      0.997700000000     0.135600000000     0.663900000000     0          
O1582    O      0.456510000000     0.671190000000     0.750960000000     0          
O1583    O      0.499590000000     0.666890000000     0.709330000000     0          
C1584    C      0.414510000000     0.626980000000     0.752470000000     0          
H1585    H      0.434900000000     0.621400000000     0.754200000000     0          
C1586    C      0.392550000000     0.605120000000     0.752460000000     0          
H1587    H      0.398100000000     0.584800000000     0.754200000000     0          
C1588    C      0.343320000000     0.563610000000     0.766240000000     0          
H1589    H      0.361000000000     0.560700000000     0.777500000000     0          
C1590    C      0.321530000000     0.541580000000     0.766370000000     0          
H1591    H      0.324400000000     0.523900000000     0.777600000000     0          
O1592    O      0.456510000000     0.171190000000     0.250960000000     0          
O1593    O      0.499590000000     0.166890000000     0.209330000000     0          
C1594    C      0.414510000000     0.126980000000     0.252470000000     0          
H1595    H      0.434900000000     0.121400000000     0.254200000000     0          
C1596    C      0.392550000000     0.105120000000     0.252460000000     0          
H1597    H      0.398100000000     0.084800000000     0.254200000000     0          
C1598    C      0.343320000000     0.063610000000     0.266240000000     0          
H1599    H      0.361000000000     0.060700000000     0.277500000000     0          
C1600    C      0.321530000000     0.041580000000     0.266370000000     0          
H1601    H      0.324400000000     0.023900000000     0.277600000000     0          
O1602    O      0.793490000000     0.171190000000     0.999040000000     0          
O1603    O      0.750410000000     0.166890000000     0.040670000000     0          
C1604    C      0.835490000000     0.126980000000     0.997530000000     0          
H1605    H      0.815100000000     0.121400000000     0.995800000000     0          
C1606    C      0.857450000000     0.105120000000     0.997540000000     0          
H1607    H      0.851900000000     0.084800000000     0.995800000000     0          
C1608    C      0.906680000000     0.063610000000     0.983760000000     0          
H1609    H      0.889000000000     0.060700000000     0.972500000000     0          
C1610    C      0.928470000000     0.041580000000     0.983630000000     0          
H1611    H      0.925600000000     0.023900000000     0.972400000000     0          
H1612    H      0.762600000000     0.159000000000     0.111000000000     0          
H1613    H      0.728000000000     0.155700000000     0.102700000000     0          
H1614    H      0.752300000000     0.135600000000     0.086100000000     0          
O1615    O      0.793490000000     0.671190000000     0.499040000000     0          
O1616    O      0.750410000000     0.666890000000     0.540670000000     0          
C1617    C      0.835490000000     0.626980000000     0.497530000000     0          
H1618    H      0.815100000000     0.621400000000     0.495800000000     0          
C1619    C      0.857450000000     0.605120000000     0.497540000000     0          
H1620    H      0.851900000000     0.584800000000     0.495800000000     0          
C1621    C      0.906680000000     0.563610000000     0.483760000000     0          
H1622    H      0.889000000000     0.560700000000     0.472500000000     0          
C1623    C      0.928470000000     0.541580000000     0.483630000000     0          
H1624    H      0.925600000000     0.523900000000     0.472400000000     0          
H1625    H      0.762600000000     0.659000000000     0.611000000000     0          
H1626    H      0.728000000000     0.655700000000     0.602700000000     0          
H1627    H      0.752300000000     0.635600000000     0.586100000000     0          
O1628    O      0.293490000000     0.171190000000     0.499040000000     0          
O1629    O      0.250410000000     0.166890000000     0.540670000000     0          
C1630    C      0.335490000000     0.126980000000     0.497530000000     0          
H1631    H      0.315100000000     0.121400000000     0.495800000000     0          
C1632    C      0.357450000000     0.105120000000     0.497540000000     0          
H1633    H      0.351900000000     0.084800000000     0.495800000000     0          
C1634    C      0.406680000000     0.063610000000     0.483760000000     0          
H1635    H      0.389000000000     0.060700000000     0.472500000000     0          
C1636    C      0.428470000000     0.041580000000     0.483630000000     0          
H1637    H      0.425600000000     0.023900000000     0.472400000000     0          
H1638    H      0.262600000000     0.159000000000     0.611000000000     0          
H1639    H      0.228000000000     0.155700000000     0.602700000000     0          
H1640    H      0.252300000000     0.135600000000     0.586100000000     0          
O1641    O      0.293490000000     0.671190000000     0.999040000000     0          
O1642    O      0.250410000000     0.666890000000     0.040670000000     0          
C1643    C      0.335490000000     0.626980000000     0.997530000000     0          
H1644    H      0.315100000000     0.621400000000     0.995800000000     0          
C1645    C      0.357450000000     0.605120000000     0.997540000000     0          
H1646    H      0.351900000000     0.584800000000     0.995800000000     0          
C1647    C      0.406680000000     0.563610000000     0.983760000000     0          
H1648    H      0.389000000000     0.560700000000     0.972500000000     0          
C1649    C      0.428470000000     0.541580000000     0.983630000000     0          
H1650    H      0.425600000000     0.523900000000     0.972400000000     0          
H1651    H      0.262600000000     0.659000000000     0.111000000000     0          
H1652    H      0.228000000000     0.655700000000     0.102700000000     0          
H1653    H      0.252300000000     0.635600000000     0.086100000000     0          
O1654    O      0.706510000000     0.249040000000     0.921190000000     0          
O1655    O      0.749590000000     0.290670000000     0.916890000000     0          
C1656    C      0.664510000000     0.247530000000     0.876980000000     0          
H1657    H      0.684900000000     0.245800000000     0.871400000000     0          
C1658    C      0.642550000000     0.247540000000     0.855120000000     0          
H1659    H      0.648100000000     0.245800000000     0.834800000000     0          
C1660    C      0.593320000000     0.233760000000     0.813610000000     0          
H1661    H      0.611000000000     0.222500000000     0.810700000000     0          
C1662    C      0.571530000000     0.233630000000     0.791580000000     0          
H1663    H      0.574400000000     0.222400000000     0.773900000000     0          
O1664    O      0.706510000000     0.749040000000     0.421190000000     0          
O1665    O      0.749590000000     0.790670000000     0.416890000000     0          
C1666    C      0.664510000000     0.747530000000     0.376980000000     0          
H1667    H      0.684900000000     0.745800000000     0.371400000000     0          
C1668    C      0.642550000000     0.747540000000     0.355120000000     0          
H1669    H      0.648100000000     0.745800000000     0.334800000000     0          
C1670    C      0.593320000000     0.733760000000     0.313610000000     0          
H1671    H      0.611000000000     0.722500000000     0.310700000000     0          
C1672    C      0.571530000000     0.733630000000     0.291580000000     0          
H1673    H      0.574400000000     0.722400000000     0.273900000000     0          
H1674    H      0.737400000000     0.861000000000     0.409000000000     0          
H1675    H      0.772000000000     0.852700000000     0.405700000000     0          
H1676    H      0.747700000000     0.836100000000     0.385600000000     0          
O1677    O      0.206510000000     0.249040000000     0.421190000000     0          
O1678    O      0.249590000000     0.290670000000     0.416890000000     0          
C1679    C      0.164510000000     0.247530000000     0.376980000000     0          
H1680    H      0.184900000000     0.245800000000     0.371400000000     0          
C1681    C      0.142550000000     0.247540000000     0.355120000000     0          
H1682    H      0.148100000000     0.245800000000     0.334800000000     0          
C1683    C      0.093320000000     0.233760000000     0.313610000000     0          
H1684    H      0.111000000000     0.222500000000     0.310700000000     0          
C1685    C      0.071530000000     0.233630000000     0.291580000000     0          
H1686    H      0.074400000000     0.222400000000     0.273900000000     0          
H1687    H      0.237400000000     0.361000000000     0.409000000000     0          
H1688    H      0.272000000000     0.352700000000     0.405700000000     0          
H1689    H      0.247700000000     0.336100000000     0.385600000000     0          
O1690    O      0.206510000000     0.749040000000     0.921190000000     0          
O1691    O      0.249590000000     0.790670000000     0.916890000000     0          
C1692    C      0.164510000000     0.747530000000     0.876980000000     0          
H1693    H      0.184900000000     0.745800000000     0.871400000000     0          
C1694    C      0.142550000000     0.747540000000     0.855120000000     0          
H1695    H      0.148100000000     0.745800000000     0.834800000000     0          
C1696    C      0.093320000000     0.733760000000     0.813610000000     0          
H1697    H      0.111000000000     0.722500000000     0.810700000000     0          
C1698    C      0.071530000000     0.733630000000     0.791580000000     0          
H1699    H      0.074400000000     0.722400000000     0.773900000000     0          
H1700    H      0.237400000000     0.861000000000     0.909000000000     0          
H1701    H      0.272000000000     0.852700000000     0.905700000000     0          
H1702    H      0.247700000000     0.836100000000     0.885600000000     0          
O1703    O      0.543490000000     0.500960000000     0.421190000000     0          
O1704    O      0.500410000000     0.459330000000     0.416890000000     0          
C1705    C      0.585490000000     0.502470000000     0.376980000000     0          
H1706    H      0.565100000000     0.504200000000     0.371400000000     0          
C1707    C      0.607450000000     0.502460000000     0.355120000000     0          
H1708    H      0.601900000000     0.504200000000     0.334800000000     0          
C1709    C      0.656680000000     0.516240000000     0.313610000000     0          
H1710    H      0.639000000000     0.527500000000     0.310700000000     0          
C1711    C      0.678470000000     0.516370000000     0.291580000000     0          
H1712    H      0.675600000000     0.527600000000     0.273900000000     0          
O1713    O      0.543490000000     0.000960000000     0.921190000000     0          
O1714    O      0.500410000000     0.959330000000     0.916890000000     0          
C1715    C      0.585490000000     0.002470000000     0.876980000000     0          
H1716    H      0.565100000000     0.004200000000     0.871400000000     0          
C1717    C      0.607450000000     0.002460000000     0.855120000000     0          
H1718    H      0.601900000000     0.004200000000     0.834800000000     0          
C1719    C      0.656680000000     0.016240000000     0.813610000000     0          
H1720    H      0.639000000000     0.027500000000     0.810700000000     0          
C1721    C      0.678470000000     0.016370000000     0.791580000000     0          
H1722    H      0.675600000000     0.027600000000     0.773900000000     0          
O1723    O      0.043490000000     0.500960000000     0.921190000000     0          
O1724    O      0.000410000000     0.459330000000     0.916890000000     0          
C1725    C      0.085490000000     0.502470000000     0.876980000000     0          
H1726    H      0.065100000000     0.504200000000     0.871400000000     0          
C1727    C      0.107450000000     0.502460000000     0.855120000000     0          
H1728    H      0.101900000000     0.504200000000     0.834800000000     0          
C1729    C      0.156680000000     0.516240000000     0.813610000000     0          
H1730    H      0.139000000000     0.527500000000     0.810700000000     0          
C1731    C      0.178470000000     0.516370000000     0.791580000000     0          
H1732    H      0.175600000000     0.527600000000     0.773900000000     0          
H1733    H      0.012600000000     0.389000000000     0.909000000000     0          
H1734    H      0.978000000000     0.397300000000     0.905700000000     0          
H1735    H      0.002300000000     0.413900000000     0.885600000000     0          
O1736    O      0.043490000000     0.000960000000     0.421190000000     0          
O1737    O      0.000410000000     0.959330000000     0.416890000000     0          
C1738    C      0.085490000000     0.002470000000     0.376980000000     0          
H1739    H      0.065100000000     0.004200000000     0.371400000000     0          
C1740    C      0.107450000000     0.002460000000     0.355120000000     0          
H1741    H      0.101900000000     0.004200000000     0.334800000000     0          
C1742    C      0.156680000000     0.016240000000     0.313610000000     0          
H1743    H      0.139000000000     0.027500000000     0.310700000000     0          
C1744    C      0.178470000000     0.016370000000     0.291580000000     0          
H1745    H      0.175600000000     0.027600000000     0.273900000000     0          
H1746    H      0.012600000000     0.889000000000     0.409000000000     0          
H1747    H      0.978000000000     0.897300000000     0.405700000000     0          
H1748    H      0.002300000000     0.913900000000     0.385600000000     0          
O1749    O      0.206510000000     0.000960000000     0.828810000000     0          
O1750    O      0.249590000000     0.959330000000     0.833110000000     0          
C1751    C      0.164510000000     0.002470000000     0.873020000000     0          
H1752    H      0.184900000000     0.004200000000     0.878600000000     0          
C1753    C      0.142550000000     0.002460000000     0.894880000000     0          
H1754    H      0.148100000000     0.004200000000     0.915200000000     0          
C1755    C      0.093320000000     0.016240000000     0.936390000000     0          
H1756    H      0.111000000000     0.027500000000     0.939300000000     0          
C1757    C      0.071530000000     0.016370000000     0.958420000000     0          
H1758    H      0.074400000000     0.027600000000     0.976100000000     0          
H1759    H      0.237400000000     0.889000000000     0.841000000000     0          
H1760    H      0.272000000000     0.897300000000     0.844300000000     0          
H1761    H      0.247700000000     0.913900000000     0.864400000000     0          
O1762    O      0.206510000000     0.500960000000     0.328810000000     0          
O1763    O      0.249590000000     0.459330000000     0.333110000000     0          
C1764    C      0.164510000000     0.502470000000     0.373020000000     0          
H1765    H      0.184900000000     0.504200000000     0.378600000000     0          
C1766    C      0.142550000000     0.502460000000     0.394880000000     0          
H1767    H      0.148100000000     0.504200000000     0.415200000000     0          
C1768    C      0.093320000000     0.516240000000     0.436390000000     0          
H1769    H      0.111000000000     0.527500000000     0.439300000000     0          
C1770    C      0.071530000000     0.516370000000     0.458420000000     0          
H1771    H      0.074400000000     0.527600000000     0.476100000000     0          
H1772    H      0.237400000000     0.389000000000     0.341000000000     0          
H1773    H      0.272000000000     0.397300000000     0.344300000000     0          
H1774    H      0.247700000000     0.413900000000     0.364400000000     0          
O1775    O      0.706510000000     0.000960000000     0.328810000000     0          
O1776    O      0.749590000000     0.959330000000     0.333110000000     0          
C1777    C      0.664510000000     0.002470000000     0.373020000000     0          
H1778    H      0.684900000000     0.004200000000     0.378600000000     0          
C1779    C      0.642550000000     0.002460000000     0.394880000000     0          
H1780    H      0.648100000000     0.004200000000     0.415200000000     0          
C1781    C      0.593320000000     0.016240000000     0.436390000000     0          
H1782    H      0.611000000000     0.027500000000     0.439300000000     0          
C1783    C      0.571530000000     0.016370000000     0.458420000000     0          
H1784    H      0.574400000000     0.027600000000     0.476100000000     0          
H1785    H      0.737400000000     0.889000000000     0.341000000000     0          
H1786    H      0.772000000000     0.897300000000     0.344300000000     0          
H1787    H      0.747700000000     0.913900000000     0.364400000000     0          
O1788    O      0.706510000000     0.500960000000     0.828810000000     0          
O1789    O      0.749590000000     0.459330000000     0.833110000000     0          
C1790    C      0.664510000000     0.502470000000     0.873020000000     0          
H1791    H      0.684900000000     0.504200000000     0.878600000000     0          
C1792    C      0.642550000000     0.502460000000     0.894880000000     0          
H1793    H      0.648100000000     0.504200000000     0.915200000000     0          
C1794    C      0.593320000000     0.516240000000     0.936390000000     0          
H1795    H      0.611000000000     0.527500000000     0.939300000000     0          
C1796    C      0.571530000000     0.516370000000     0.958420000000     0          
H1797    H      0.574400000000     0.527600000000     0.976100000000     0          
H1798    H      0.737400000000     0.389000000000     0.841000000000     0          
H1799    H      0.772000000000     0.397300000000     0.844300000000     0          
H1800    H      0.747700000000     0.413900000000     0.864400000000     0          
O1801    O      0.043490000000     0.749040000000     0.328810000000     0          
O1802    O      0.000410000000     0.790670000000     0.333110000000     0          
C1803    C      0.085490000000     0.747530000000     0.373020000000     0          
H1804    H      0.065100000000     0.745800000000     0.378600000000     0          
C1805    C      0.107450000000     0.747540000000     0.394880000000     0          
H1806    H      0.101900000000     0.745800000000     0.415200000000     0          
C1807    C      0.156680000000     0.733760000000     0.436390000000     0          
H1808    H      0.139000000000     0.722500000000     0.439300000000     0          
C1809    C      0.178470000000     0.733630000000     0.458420000000     0          
H1810    H      0.175600000000     0.722400000000     0.476100000000     0          
H1811    H      0.012600000000     0.861000000000     0.341000000000     0          
H1812    H      0.978000000000     0.852700000000     0.344300000000     0          
H1813    H      0.002300000000     0.836100000000     0.364400000000     0          
O1814    O      0.043490000000     0.249040000000     0.828810000000     0          
O1815    O      0.000410000000     0.290670000000     0.833110000000     0          
C1816    C      0.085490000000     0.247530000000     0.873020000000     0          
H1817    H      0.065100000000     0.245800000000     0.878600000000     0          
C1818    C      0.107450000000     0.247540000000     0.894880000000     0          
H1819    H      0.101900000000     0.245800000000     0.915200000000     0          
C1820    C      0.156680000000     0.233760000000     0.936390000000     0          
H1821    H      0.139000000000     0.222500000000     0.939300000000     0          
C1822    C      0.178470000000     0.233630000000     0.958420000000     0          
H1823    H      0.175600000000     0.222400000000     0.976100000000     0          
H1824    H      0.012600000000     0.361000000000     0.841000000000     0          
H1825    H      0.978000000000     0.352700000000     0.844300000000     0          
H1826    H      0.002300000000     0.336100000000     0.864400000000     0          
O1827    O      0.543490000000     0.749040000000     0.828810000000     0          
O1828    O      0.500410000000     0.790670000000     0.833110000000     0          
C1829    C      0.585490000000     0.747530000000     0.873020000000     0          
H1830    H      0.565100000000     0.745800000000     0.878600000000     0          
C1831    C      0.607450000000     0.747540000000     0.894880000000     0          
H1832    H      0.601900000000     0.745800000000     0.915200000000     0          
C1833    C      0.656680000000     0.733760000000     0.936390000000     0          
H1834    H      0.639000000000     0.722500000000     0.939300000000     0          
C1835    C      0.678470000000     0.733630000000     0.958420000000     0          
H1836    H      0.675600000000     0.722400000000     0.976100000000     0          
H1837    H      0.512600000000     0.861000000000     0.841000000000     0          
H1838    H      0.478000000000     0.852700000000     0.844300000000     0          
H1839    H      0.502300000000     0.836100000000     0.864400000000     0          
O1840    O      0.543490000000     0.249040000000     0.328810000000     0          
O1841    O      0.500410000000     0.290670000000     0.333110000000     0          
C1842    C      0.585490000000     0.247530000000     0.373020000000     0          
H1843    H      0.565100000000     0.245800000000     0.378600000000     0          
C1844    C      0.607450000000     0.247540000000     0.394880000000     0          
H1845    H      0.601900000000     0.245800000000     0.415200000000     0          
C1846    C      0.656680000000     0.233760000000     0.436390000000     0          
H1847    H      0.639000000000     0.222500000000     0.439300000000     0          
C1848    C      0.678470000000     0.233630000000     0.458420000000     0          
H1849    H      0.675600000000     0.222400000000     0.476100000000     0          
H1850    H      0.512600000000     0.361000000000     0.341000000000     0          
H1851    H      0.478000000000     0.352700000000     0.344300000000     0          
H1852    H      0.502300000000     0.336100000000     0.364400000000     0          
O1853    O      0.749040000000     0.328810000000     0.043490000000     0          
O1854    O      0.790670000000     0.333110000000     0.000410000000     0          
C1855    C      0.747530000000     0.373020000000     0.085490000000     0          
H1856    H      0.745800000000     0.378600000000     0.065100000000     0          
C1857    C      0.747540000000     0.394880000000     0.107450000000     0          
H1858    H      0.745800000000     0.415200000000     0.101900000000     0          
C1859    C      0.733760000000     0.436390000000     0.156680000000     0          
H1860    H      0.722500000000     0.439300000000     0.139000000000     0          
C1861    C      0.733630000000     0.458420000000     0.178470000000     0          
H1862    H      0.722400000000     0.476100000000     0.175600000000     0          
H1863    H      0.861000000000     0.341000000000     0.012600000000     0          
H1864    H      0.852700000000     0.344300000000     0.978000000000     0          
H1865    H      0.836100000000     0.364400000000     0.002300000000     0          
O1866    O      0.749040000000     0.828810000000     0.543490000000     0          
O1867    O      0.790670000000     0.833110000000     0.500410000000     0          
C1868    C      0.747530000000     0.873020000000     0.585490000000     0          
H1869    H      0.745800000000     0.878600000000     0.565100000000     0          
C1870    C      0.747540000000     0.894880000000     0.607450000000     0          
H1871    H      0.745800000000     0.915200000000     0.601900000000     0          
C1872    C      0.733760000000     0.936390000000     0.656680000000     0          
H1873    H      0.722500000000     0.939300000000     0.639000000000     0          
C1874    C      0.733630000000     0.958420000000     0.678470000000     0          
H1875    H      0.722400000000     0.976100000000     0.675600000000     0          
H1876    H      0.861000000000     0.841000000000     0.512600000000     0          
H1877    H      0.852700000000     0.844300000000     0.478000000000     0          
H1878    H      0.836100000000     0.864400000000     0.502300000000     0          
O1879    O      0.249040000000     0.328810000000     0.543490000000     0          
O1880    O      0.290670000000     0.333110000000     0.500410000000     0          
C1881    C      0.247530000000     0.373020000000     0.585490000000     0          
H1882    H      0.245800000000     0.378600000000     0.565100000000     0          
C1883    C      0.247540000000     0.394880000000     0.607450000000     0          
H1884    H      0.245800000000     0.415200000000     0.601900000000     0          
C1885    C      0.233760000000     0.436390000000     0.656680000000     0          
H1886    H      0.222500000000     0.439300000000     0.639000000000     0          
C1887    C      0.233630000000     0.458420000000     0.678470000000     0          
H1888    H      0.222400000000     0.476100000000     0.675600000000     0          
O1889    O      0.249040000000     0.828810000000     0.043490000000     0          
O1890    O      0.290670000000     0.833110000000     0.000410000000     0          
C1891    C      0.247530000000     0.873020000000     0.085490000000     0          
H1892    H      0.245800000000     0.878600000000     0.065100000000     0          
C1893    C      0.247540000000     0.894880000000     0.107450000000     0          
H1894    H      0.245800000000     0.915200000000     0.101900000000     0          
C1895    C      0.233760000000     0.936390000000     0.156680000000     0          
H1896    H      0.222500000000     0.939300000000     0.139000000000     0          
C1897    C      0.233630000000     0.958420000000     0.178470000000     0          
H1898    H      0.222400000000     0.976100000000     0.175600000000     0          
O1899    O      0.000960000000     0.828810000000     0.206510000000     0          
O1900    O      0.959330000000     0.833110000000     0.249590000000     0          
C1901    C      0.002470000000     0.873020000000     0.164510000000     0          
H1902    H      0.004200000000     0.878600000000     0.184900000000     0          
C1903    C      0.002460000000     0.894880000000     0.142550000000     0          
H1904    H      0.004200000000     0.915200000000     0.148100000000     0          
C1905    C      0.016240000000     0.936390000000     0.093320000000     0          
H1906    H      0.027500000000     0.939300000000     0.111000000000     0          
C1907    C      0.016370000000     0.958420000000     0.071530000000     0          
H1908    H      0.027600000000     0.976100000000     0.074400000000     0          
O1909    O      0.000960000000     0.328810000000     0.706510000000     0          
O1910    O      0.959330000000     0.333110000000     0.749590000000     0          
C1911    C      0.002470000000     0.373020000000     0.664510000000     0          
H1912    H      0.004200000000     0.378600000000     0.684900000000     0          
C1913    C      0.002460000000     0.394880000000     0.642550000000     0          
H1914    H      0.004200000000     0.415200000000     0.648100000000     0          
C1915    C      0.016240000000     0.436390000000     0.593320000000     0          
H1916    H      0.027500000000     0.439300000000     0.611000000000     0          
C1917    C      0.016370000000     0.458420000000     0.571530000000     0          
H1918    H      0.027600000000     0.476100000000     0.574400000000     0          
H1919    H      0.889000000000     0.341000000000     0.737400000000     0          
H1920    H      0.897300000000     0.344300000000     0.772000000000     0          
H1921    H      0.913900000000     0.364400000000     0.747700000000     0          
O1922    O      0.500960000000     0.828810000000     0.706510000000     0          
O1923    O      0.459330000000     0.833110000000     0.749590000000     0          
C1924    C      0.502470000000     0.873020000000     0.664510000000     0          
H1925    H      0.504200000000     0.878600000000     0.684900000000     0          
C1926    C      0.502460000000     0.894880000000     0.642550000000     0          
H1927    H      0.504200000000     0.915200000000     0.648100000000     0          
C1928    C      0.516240000000     0.936390000000     0.593320000000     0          
H1929    H      0.527500000000     0.939300000000     0.611000000000     0          
C1930    C      0.516370000000     0.958420000000     0.571530000000     0          
H1931    H      0.527600000000     0.976100000000     0.574400000000     0          
H1932    H      0.389000000000     0.841000000000     0.737400000000     0          
H1933    H      0.397300000000     0.844300000000     0.772000000000     0          
H1934    H      0.413900000000     0.864400000000     0.747700000000     0          
O1935    O      0.500960000000     0.328810000000     0.206510000000     0          
O1936    O      0.459330000000     0.333110000000     0.249590000000     0          
C1937    C      0.502470000000     0.373020000000     0.164510000000     0          
H1938    H      0.504200000000     0.378600000000     0.184900000000     0          
C1939    C      0.502460000000     0.394880000000     0.142550000000     0          
H1940    H      0.504200000000     0.415200000000     0.148100000000     0          
C1941    C      0.516240000000     0.436390000000     0.093320000000     0          
H1942    H      0.527500000000     0.439300000000     0.111000000000     0          
C1943    C      0.516370000000     0.458420000000     0.071530000000     0          
H1944    H      0.527600000000     0.476100000000     0.074400000000     0          
O1945    O      0.500960000000     0.421190000000     0.543490000000     0          
O1946    O      0.459330000000     0.416890000000     0.500410000000     0          
C1947    C      0.502470000000     0.376980000000     0.585490000000     0          
H1948    H      0.504200000000     0.371400000000     0.565100000000     0          
C1949    C      0.502460000000     0.355120000000     0.607450000000     0          
H1950    H      0.504200000000     0.334800000000     0.601900000000     0          
C1951    C      0.516240000000     0.313610000000     0.656680000000     0          
H1952    H      0.527500000000     0.310700000000     0.639000000000     0          
C1953    C      0.516370000000     0.291580000000     0.678470000000     0          
H1954    H      0.527600000000     0.273900000000     0.675600000000     0          
O1955    O      0.500960000000     0.921190000000     0.043490000000     0          
O1956    O      0.459330000000     0.916890000000     0.000410000000     0          
C1957    C      0.502470000000     0.876980000000     0.085490000000     0          
H1958    H      0.504200000000     0.871400000000     0.065100000000     0          
C1959    C      0.502460000000     0.855120000000     0.107450000000     0          
H1960    H      0.504200000000     0.834800000000     0.101900000000     0          
C1961    C      0.516240000000     0.813610000000     0.156680000000     0          
H1962    H      0.527500000000     0.810700000000     0.139000000000     0          
C1963    C      0.516370000000     0.791580000000     0.178470000000     0          
H1964    H      0.527600000000     0.773900000000     0.175600000000     0          
H1965    H      0.389000000000     0.909000000000     0.012600000000     0          
H1966    H      0.397300000000     0.905700000000     0.978000000000     0          
H1967    H      0.413900000000     0.885600000000     0.002300000000     0          
O1968    O      0.000960000000     0.421190000000     0.043490000000     0          
O1969    O      0.959330000000     0.416890000000     0.000410000000     0          
C1970    C      0.002470000000     0.376980000000     0.085490000000     0          
H1971    H      0.004200000000     0.371400000000     0.065100000000     0          
C1972    C      0.002460000000     0.355120000000     0.107450000000     0          
H1973    H      0.004200000000     0.334800000000     0.101900000000     0          
C1974    C      0.016240000000     0.313610000000     0.156680000000     0          
H1975    H      0.027500000000     0.310700000000     0.139000000000     0          
C1976    C      0.016370000000     0.291580000000     0.178470000000     0          
H1977    H      0.027600000000     0.273900000000     0.175600000000     0          
O1978    O      0.000960000000     0.921190000000     0.543490000000     0          
O1979    O      0.959330000000     0.916890000000     0.500410000000     0          
C1980    C      0.002470000000     0.876980000000     0.585490000000     0          
H1981    H      0.004200000000     0.871400000000     0.565100000000     0          
C1982    C      0.002460000000     0.855120000000     0.607450000000     0          
H1983    H      0.004200000000     0.834800000000     0.601900000000     0          
C1984    C      0.016240000000     0.813610000000     0.656680000000     0          
H1985    H      0.027500000000     0.810700000000     0.639000000000     0          
C1986    C      0.016370000000     0.791580000000     0.678470000000     0          
H1987    H      0.027600000000     0.773900000000     0.675600000000     0          
H1988    H      0.889000000000     0.909000000000     0.512600000000     0          
H1989    H      0.897300000000     0.905700000000     0.478000000000     0          
H1990    H      0.913900000000     0.885600000000     0.502300000000     0          
O1991    O      0.249040000000     0.921190000000     0.706510000000     0          
O1992    O      0.290670000000     0.916890000000     0.749590000000     0          
C1993    C      0.247530000000     0.876980000000     0.664510000000     0          
H1994    H      0.245800000000     0.871400000000     0.684900000000     0          
C1995    C      0.247540000000     0.855120000000     0.642550000000     0          
H1996    H      0.245800000000     0.834800000000     0.648100000000     0          
C1997    C      0.233760000000     0.813610000000     0.593320000000     0          
H1998    H      0.222500000000     0.810700000000     0.611000000000     0          
C1999    C      0.233630000000     0.791580000000     0.571530000000     0          
H2000    H      0.222400000000     0.773900000000     0.574400000000     0          
O2001    O      0.249040000000     0.421190000000     0.206510000000     0          
O2002    O      0.290670000000     0.416890000000     0.249590000000     0          
C2003    C      0.247530000000     0.376980000000     0.164510000000     0          
H2004    H      0.245800000000     0.371400000000     0.184900000000     0          
C2005    C      0.247540000000     0.355120000000     0.142550000000     0          
H2006    H      0.245800000000     0.334800000000     0.148100000000     0          
C2007    C      0.233760000000     0.313610000000     0.093320000000     0          
H2008    H      0.222500000000     0.310700000000     0.111000000000     0          
C2009    C      0.233630000000     0.291580000000     0.071530000000     0          
H2010    H      0.222400000000     0.273900000000     0.074400000000     0          
H2011    H      0.361000000000     0.409000000000     0.237400000000     0          
H2012    H      0.352700000000     0.405700000000     0.272000000000     0          
H2013    H      0.336100000000     0.385600000000     0.247700000000     0          
O2014    O      0.749040000000     0.921190000000     0.206510000000     0          
O2015    O      0.790670000000     0.916890000000     0.249590000000     0          
C2016    C      0.747530000000     0.876980000000     0.164510000000     0          
H2017    H      0.745800000000     0.871400000000     0.184900000000     0          
C2018    C      0.747540000000     0.855120000000     0.142550000000     0          
H2019    H      0.745800000000     0.834800000000     0.148100000000     0          
C2020    C      0.733760000000     0.813610000000     0.093320000000     0          
H2021    H      0.722500000000     0.810700000000     0.111000000000     0          
C2022    C      0.733630000000     0.791580000000     0.071530000000     0          
H2023    H      0.722400000000     0.773900000000     0.074400000000     0          
H2024    H      0.861000000000     0.909000000000     0.237400000000     0          
H2025    H      0.852700000000     0.905700000000     0.272000000000     0          
H2026    H      0.836100000000     0.885600000000     0.247700000000     0          
O2027    O      0.749040000000     0.421190000000     0.706510000000     0          
O2028    O      0.790670000000     0.416890000000     0.749590000000     0          
C2029    C      0.747530000000     0.376980000000     0.664510000000     0          
H2030    H      0.745800000000     0.371400000000     0.684900000000     0          
C2031    C      0.747540000000     0.355120000000     0.642550000000     0          
H2032    H      0.745800000000     0.334800000000     0.648100000000     0          
C2033    C      0.733760000000     0.313610000000     0.593320000000     0          
H2034    H      0.722500000000     0.310700000000     0.611000000000     0          
C2035    C      0.733630000000     0.291580000000     0.571530000000     0          
H2036    H      0.722400000000     0.273900000000     0.574400000000     0          
H2037    H      0.861000000000     0.409000000000     0.737400000000     0          
H2038    H      0.852700000000     0.405700000000     0.772000000000     0          
H2039    H      0.836100000000     0.385600000000     0.747700000000     0          
O2040    O      0.828810000000     0.206510000000     0.000960000000     0          
O2041    O      0.833110000000     0.249590000000     0.959330000000     0          
C2042    C      0.873020000000     0.164510000000     0.002470000000     0          
H2043    H      0.878600000000     0.184900000000     0.004200000000     0          
C2044    C      0.894880000000     0.142550000000     0.002460000000     0          
H2045    H      0.915200000000     0.148100000000     0.004200000000     0          
C2046    C      0.936390000000     0.093320000000     0.016240000000     0          
H2047    H      0.939300000000     0.111000000000     0.027500000000     0          
C2048    C      0.958420000000     0.071530000000     0.016370000000     0          
H2049    H      0.976100000000     0.074400000000     0.027600000000     0          
H2050    H      0.841000000000     0.237400000000     0.889000000000     0          
H2051    H      0.844300000000     0.272000000000     0.897300000000     0          
H2052    H      0.864400000000     0.247700000000     0.913900000000     0          
O2053    O      0.828810000000     0.706510000000     0.500960000000     0          
O2054    O      0.833110000000     0.749590000000     0.459330000000     0          
C2055    C      0.873020000000     0.664510000000     0.502470000000     0          
H2056    H      0.878600000000     0.684900000000     0.504200000000     0          
C2057    C      0.894880000000     0.642550000000     0.502460000000     0          
H2058    H      0.915200000000     0.648100000000     0.504200000000     0          
C2059    C      0.936390000000     0.593320000000     0.516240000000     0          
H2060    H      0.939300000000     0.611000000000     0.527500000000     0          
C2061    C      0.958420000000     0.571530000000     0.516370000000     0          
H2062    H      0.976100000000     0.574400000000     0.527600000000     0          
O2063    O      0.328810000000     0.206510000000     0.500960000000     0          
O2064    O      0.333110000000     0.249590000000     0.459330000000     0          
C2065    C      0.373020000000     0.164510000000     0.502470000000     0          
H2066    H      0.378600000000     0.184900000000     0.504200000000     0          
C2067    C      0.394880000000     0.142550000000     0.502460000000     0          
H2068    H      0.415200000000     0.148100000000     0.504200000000     0          
C2069    C      0.436390000000     0.093320000000     0.516240000000     0          
H2070    H      0.439300000000     0.111000000000     0.527500000000     0          
C2071    C      0.458420000000     0.071530000000     0.516370000000     0          
H2072    H      0.476100000000     0.074400000000     0.527600000000     0          
O2073    O      0.328810000000     0.706510000000     0.000960000000     0          
O2074    O      0.333110000000     0.749590000000     0.959330000000     0          
C2075    C      0.373020000000     0.664510000000     0.002470000000     0          
H2076    H      0.378600000000     0.684900000000     0.004200000000     0          
C2077    C      0.394880000000     0.642550000000     0.002460000000     0          
H2078    H      0.415200000000     0.648100000000     0.004200000000     0          
C2079    C      0.436390000000     0.593320000000     0.016240000000     0          
H2080    H      0.439300000000     0.611000000000     0.027500000000     0          
C2081    C      0.458420000000     0.571530000000     0.016370000000     0          
H2082    H      0.476100000000     0.574400000000     0.027600000000     0          
O2083    O      0.328810000000     0.043490000000     0.749040000000     0          
O2084    O      0.333110000000     0.000410000000     0.790670000000     0          
C2085    C      0.373020000000     0.085490000000     0.747530000000     0          
H2086    H      0.378600000000     0.065100000000     0.745800000000     0          
C2087    C      0.394880000000     0.107450000000     0.747540000000     0          
H2088    H      0.415200000000     0.101900000000     0.745800000000     0          
C2089    C      0.436390000000     0.156680000000     0.733760000000     0          
H2090    H      0.439300000000     0.139000000000     0.722500000000     0          
C2091    C      0.458420000000     0.178470000000     0.733630000000     0          
H2092    H      0.476100000000     0.175600000000     0.722400000000     0          
O2093    O      0.328810000000     0.543490000000     0.249040000000     0          
O2094    O      0.333110000000     0.500410000000     0.290670000000     0          
C2095    C      0.373020000000     0.585490000000     0.247530000000     0          
H2096    H      0.378600000000     0.565100000000     0.245800000000     0          
C2097    C      0.394880000000     0.607450000000     0.247540000000     0          
H2098    H      0.415200000000     0.601900000000     0.245800000000     0          
C2099    C      0.436390000000     0.656680000000     0.233760000000     0          
H2100    H      0.439300000000     0.639000000000     0.222500000000     0          
C2101    C      0.458420000000     0.678470000000     0.233630000000     0          
H2102    H      0.476100000000     0.675600000000     0.222400000000     0          
O2103    O      0.828810000000     0.043490000000     0.249040000000     0          
O2104    O      0.833110000000     0.000410000000     0.290670000000     0          
C2105    C      0.873020000000     0.085490000000     0.247530000000     0          
H2106    H      0.878600000000     0.065100000000     0.245800000000     0          
C2107    C      0.894880000000     0.107450000000     0.247540000000     0          
H2108    H      0.915200000000     0.101900000000     0.245800000000     0          
C2109    C      0.936390000000     0.156680000000     0.233760000000     0          
H2110    H      0.939300000000     0.139000000000     0.222500000000     0          
C2111    C      0.958420000000     0.178470000000     0.233630000000     0          
H2112    H      0.976100000000     0.175600000000     0.222400000000     0          
O2113    O      0.828810000000     0.543490000000     0.749040000000     0          
O2114    O      0.833110000000     0.500410000000     0.790670000000     0          
C2115    C      0.873020000000     0.585490000000     0.747530000000     0          
H2116    H      0.878600000000     0.565100000000     0.745800000000     0          
C2117    C      0.894880000000     0.607450000000     0.747540000000     0          
H2118    H      0.915200000000     0.601900000000     0.745800000000     0          
C2119    C      0.936390000000     0.656680000000     0.733760000000     0          
H2120    H      0.939300000000     0.639000000000     0.722500000000     0          
C2121    C      0.958420000000     0.678470000000     0.733630000000     0          
H2122    H      0.976100000000     0.675600000000     0.722400000000     0          
O2123    O      0.921190000000     0.706510000000     0.249040000000     0          
O2124    O      0.916890000000     0.749590000000     0.290670000000     0          
C2125    C      0.876980000000     0.664510000000     0.247530000000     0          
H2126    H      0.871400000000     0.684900000000     0.245800000000     0          
C2127    C      0.855120000000     0.642550000000     0.247540000000     0          
H2128    H      0.834800000000     0.648100000000     0.245800000000     0          
C2129    C      0.813610000000     0.593320000000     0.233760000000     0          
H2130    H      0.810700000000     0.611000000000     0.222500000000     0          
C2131    C      0.791580000000     0.571530000000     0.233630000000     0          
H2132    H      0.773900000000     0.574400000000     0.222400000000     0          
O2133    O      0.921190000000     0.206510000000     0.749040000000     0          
O2134    O      0.916890000000     0.249590000000     0.790670000000     0          
C2135    C      0.876980000000     0.164510000000     0.747530000000     0          
H2136    H      0.871400000000     0.184900000000     0.745800000000     0          
C2137    C      0.855120000000     0.142550000000     0.747540000000     0          
H2138    H      0.834800000000     0.148100000000     0.745800000000     0          
C2139    C      0.813610000000     0.093320000000     0.733760000000     0          
H2140    H      0.810700000000     0.111000000000     0.722500000000     0          
C2141    C      0.791580000000     0.071530000000     0.733630000000     0          
H2142    H      0.773900000000     0.074400000000     0.722400000000     0          
O2143    O      0.421190000000     0.706510000000     0.749040000000     0          
O2144    O      0.416890000000     0.749590000000     0.790670000000     0          
C2145    C      0.376980000000     0.664510000000     0.747530000000     0          
H2146    H      0.371400000000     0.684900000000     0.745800000000     0          
C2147    C      0.355120000000     0.642550000000     0.747540000000     0          
H2148    H      0.334800000000     0.648100000000     0.745800000000     0          
C2149    C      0.313610000000     0.593320000000     0.733760000000     0          
H2150    H      0.310700000000     0.611000000000     0.722500000000     0          
C2151    C      0.291580000000     0.571530000000     0.733630000000     0          
H2152    H      0.273900000000     0.574400000000     0.722400000000     0          
H2153    H      0.409000000000     0.737400000000     0.861000000000     0          
H2154    H      0.405700000000     0.772000000000     0.852700000000     0          
H2155    H      0.385600000000     0.747700000000     0.836100000000     0          
O2156    O      0.421190000000     0.206510000000     0.249040000000     0          
O2157    O      0.416890000000     0.249590000000     0.290670000000     0          
C2158    C      0.376980000000     0.164510000000     0.247530000000     0          
H2159    H      0.371400000000     0.184900000000     0.245800000000     0          
C2160    C      0.355120000000     0.142550000000     0.247540000000     0          
H2161    H      0.334800000000     0.148100000000     0.245800000000     0          
C2162    C      0.313610000000     0.093320000000     0.233760000000     0          
H2163    H      0.310700000000     0.111000000000     0.222500000000     0          
C2164    C      0.291580000000     0.071530000000     0.233630000000     0          
H2165    H      0.273900000000     0.074400000000     0.222400000000     0          
O2166    O      0.421190000000     0.543490000000     0.500960000000     0          
O2167    O      0.416890000000     0.500410000000     0.459330000000     0          
C2168    C      0.376980000000     0.585490000000     0.502470000000     0          
H2169    H      0.371400000000     0.565100000000     0.504200000000     0          
C2170    C      0.355120000000     0.607450000000     0.502460000000     0          
H2171    H      0.334800000000     0.601900000000     0.504200000000     0          
C2172    C      0.313610000000     0.656680000000     0.516240000000     0          
H2173    H      0.310700000000     0.639000000000     0.527500000000     0          
C2174    C      0.291580000000     0.678470000000     0.516370000000     0          
H2175    H      0.273900000000     0.675600000000     0.527600000000     0          
O2176    O      0.421190000000     0.043490000000     0.000960000000     0          
O2177    O      0.416890000000     0.000410000000     0.959330000000     0          
C2178    C      0.376980000000     0.085490000000     0.002470000000     0          
H2179    H      0.371400000000     0.065100000000     0.004200000000     0          
C2180    C      0.355120000000     0.107450000000     0.002460000000     0          
H2181    H      0.334800000000     0.101900000000     0.004200000000     0          
C2182    C      0.313610000000     0.156680000000     0.016240000000     0          
H2183    H      0.310700000000     0.139000000000     0.027500000000     0          
C2184    C      0.291580000000     0.178470000000     0.016370000000     0          
H2185    H      0.273900000000     0.175600000000     0.027600000000     0          
H2186    H      0.409000000000     0.012600000000     0.889000000000     0          
H2187    H      0.405700000000     0.978000000000     0.897300000000     0          
H2188    H      0.385600000000     0.002300000000     0.913900000000     0          
O2189    O      0.921190000000     0.543490000000     0.000960000000     0          
O2190    O      0.916890000000     0.500410000000     0.959330000000     0          
C2191    C      0.876980000000     0.585490000000     0.002470000000     0          
H2192    H      0.871400000000     0.565100000000     0.004200000000     0          
C2193    C      0.855120000000     0.607450000000     0.002460000000     0          
H2194    H      0.834800000000     0.601900000000     0.004200000000     0          
C2195    C      0.813610000000     0.656680000000     0.016240000000     0          
H2196    H      0.810700000000     0.639000000000     0.027500000000     0          
C2197    C      0.791580000000     0.678470000000     0.016370000000     0          
H2198    H      0.773900000000     0.675600000000     0.027600000000     0          
O2199    O      0.921190000000     0.043490000000     0.500960000000     0          
O2200    O      0.916890000000     0.000410000000     0.459330000000     0          
C2201    C      0.876980000000     0.085490000000     0.502470000000     0          
H2202    H      0.871400000000     0.065100000000     0.504200000000     0          
C2203    C      0.855120000000     0.107450000000     0.502460000000     0          
H2204    H      0.834800000000     0.101900000000     0.504200000000     0          
C2205    C      0.813610000000     0.156680000000     0.516240000000     0          
H2206    H      0.810700000000     0.139000000000     0.527500000000     0          
C2207    C      0.791580000000     0.178470000000     0.516370000000     0          
H2208    H      0.773900000000     0.175600000000     0.527600000000     0          
Zr2209   Zr     0.500020000000     0.500020000000     0.444810000000     0          
Zr2210   Zr     0.500020000000     0.000020000000     0.944810000000     0          
Zr2211   Zr     0.000020000000     0.500020000000     0.944810000000     0          
Zr2212   Zr     0.000020000000     0.000020000000     0.444810000000     0          
Zr2213   Zr     0.249980000000     0.749980000000     0.944810000000     0          
Zr2214   Zr     0.249980000000     0.249980000000     0.444810000000     0          
Zr2215   Zr     0.749980000000     0.000020000000     0.305190000000     0          
Zr2216   Zr     0.749980000000     0.500020000000     0.805190000000     0          
Zr2217   Zr     0.249980000000     0.500020000000     0.305190000000     0          
Zr2218   Zr     0.000020000000     0.249980000000     0.805190000000     0          
Zr2219   Zr     0.500020000000     0.249980000000     0.305190000000     0          
Zr2220   Zr     0.444810000000     0.500020000000     0.500020000000     0          
Zr2221   Zr     0.444810000000     0.000020000000     0.000020000000     0          
Zr2222   Zr     0.944810000000     0.500020000000     0.000020000000     0          
Zr2223   Zr     0.944810000000     0.000020000000     0.500020000000     0          
Zr2224   Zr     0.944810000000     0.249980000000     0.749980000000     0          
Zr2225   Zr     0.444810000000     0.249980000000     0.249980000000     0          
Zr2226   Zr     0.305190000000     0.749980000000     0.000020000000     0          
Zr2227   Zr     0.305190000000     0.249980000000     0.500020000000     0          
Zr2228   Zr     0.805190000000     0.000020000000     0.249980000000     0          
Zr2229   Zr     0.805190000000     0.500020000000     0.749980000000     0          
Zr2230   Zr     0.305190000000     0.500020000000     0.249980000000     0          
Zr2231   Zr     0.500020000000     0.444810000000     0.500020000000     0          
Zr2232   Zr     0.500020000000     0.944810000000     0.000020000000     0          
Zr2233   Zr     0.000020000000     0.444810000000     0.000020000000     0          
Zr2234   Zr     0.000020000000     0.944810000000     0.500020000000     0          
Zr2235   Zr     0.749980000000     0.944810000000     0.249980000000     0          
Zr2236   Zr     0.749980000000     0.444810000000     0.749980000000     0          
Zr2237   Zr     0.249980000000     0.444810000000     0.249980000000     0          
Zr2238   Zr     0.000020000000     0.305190000000     0.749980000000     0          
Zr2239   Zr     0.500020000000     0.305190000000     0.249980000000     0          
Zr2240   Zr     0.249980000000     0.805190000000     0.000020000000     0          
Zr2241   Zr     0.249980000000     0.305190000000     0.500020000000     0          
Zr2242   Zr     0.250020000000     0.750020000000     0.055190000000     0          
Zr2243   Zr     0.250020000000     0.250020000000     0.555190000000     0          
Zr2244   Zr     0.499980000000     0.499980000000     0.555190000000     0          
Zr2245   Zr     0.499980000000     0.999980000000     0.055190000000     0          
Zr2246   Zr     0.999980000000     0.499980000000     0.055190000000     0          
Zr2247   Zr     0.999980000000     0.999980000000     0.555190000000     0          
Zr2248   Zr     0.750020000000     0.999980000000     0.194810000000     0          
Zr2249   Zr     0.750020000000     0.499980000000     0.694810000000     0          
Zr2250   Zr     0.250020000000     0.499980000000     0.194810000000     0          
Zr2251   Zr     0.999980000000     0.250020000000     0.694810000000     0          
Zr2252   Zr     0.499980000000     0.250020000000     0.194810000000     0          
Zr2253   Zr     0.250020000000     0.694810000000     0.999980000000     0          
Zr2254   Zr     0.250020000000     0.194810000000     0.499980000000     0          
Zr2255   Zr     0.999980000000     0.194810000000     0.750020000000     0          
Zr2256   Zr     0.499980000000     0.194810000000     0.250020000000     0          
Zr2257   Zr     0.499980000000     0.555190000000     0.499980000000     0          
Zr2258   Zr     0.499980000000     0.055190000000     0.999980000000     0          
Zr2259   Zr     0.999980000000     0.555190000000     0.999980000000     0          
Zr2260   Zr     0.999980000000     0.055190000000     0.499980000000     0          
Zr2261   Zr     0.750020000000     0.055190000000     0.250020000000     0          
Zr2262   Zr     0.750020000000     0.555190000000     0.750020000000     0          
Zr2263   Zr     0.250020000000     0.555190000000     0.250020000000     0          
Zr2264   Zr     0.194810000000     0.750020000000     0.999980000000     0          
Zr2265   Zr     0.194810000000     0.250020000000     0.499980000000     0          
Zr2266   Zr     0.694810000000     0.999980000000     0.250020000000     0          
Zr2267   Zr     0.694810000000     0.499980000000     0.750020000000     0          
Zr2268   Zr     0.194810000000     0.499980000000     0.250020000000     0          
Zr2269   Zr     0.055190000000     0.250020000000     0.750020000000     0          
Zr2270   Zr     0.555190000000     0.250020000000     0.250020000000     0          
Zr2271   Zr     0.555190000000     0.499980000000     0.499980000000     0          
Zr2272   Zr     0.555190000000     0.999980000000     0.999980000000     0          
Zr2273   Zr     0.055190000000     0.499980000000     0.999980000000     0          
Zr2274   Zr     0.055190000000     0.999980000000     0.499980000000     0          
Zr2275   Zr     0.750020000000     0.250020000000     0.055190000000     0          
Zr2276   Zr     0.750020000000     0.750020000000     0.555190000000     0          
Zr2277   Zr     0.250020000000     0.999980000000     0.694810000000     0          
Zr2278   Zr     0.999980000000     0.750020000000     0.194810000000     0          
Zr2279   Zr     0.499980000000     0.750020000000     0.694810000000     0          
Zr2280   Zr     0.055190000000     0.750020000000     0.250020000000     0          
Zr2281   Zr     0.555190000000     0.750020000000     0.750020000000     0          
Zr2282   Zr     0.694810000000     0.250020000000     0.999980000000     0          
Zr2283   Zr     0.694810000000     0.750020000000     0.499980000000     0          
Zr2284   Zr     0.194810000000     0.999980000000     0.750020000000     0          
Zr2285   Zr     0.250020000000     0.055190000000     0.750020000000     0          
Zr2286   Zr     0.999980000000     0.694810000000     0.250020000000     0          
Zr2287   Zr     0.499980000000     0.694810000000     0.750020000000     0          
Zr2288   Zr     0.750020000000     0.194810000000     0.999980000000     0          
Zr2289   Zr     0.750020000000     0.694810000000     0.499980000000     0          
Zr2290   Zr     0.749980000000     0.249980000000     0.944810000000     0          
Zr2291   Zr     0.749980000000     0.749980000000     0.444810000000     0          
Zr2292   Zr     0.249980000000     0.000020000000     0.805190000000     0          
Zr2293   Zr     0.000020000000     0.749980000000     0.305190000000     0          
Zr2294   Zr     0.500020000000     0.749980000000     0.805190000000     0          
Zr2295   Zr     0.749980000000     0.305190000000     0.000020000000     0          
Zr2296   Zr     0.749980000000     0.805190000000     0.500020000000     0          
Zr2297   Zr     0.000020000000     0.805190000000     0.249980000000     0          
Zr2298   Zr     0.500020000000     0.805190000000     0.749980000000     0          
Zr2299   Zr     0.249980000000     0.944810000000     0.749980000000     0          
Zr2300   Zr     0.805190000000     0.249980000000     0.000020000000     0          
Zr2301   Zr     0.805190000000     0.749980000000     0.500020000000     0          
Zr2302   Zr     0.305190000000     0.000020000000     0.749980000000     0          
Zr2303   Zr     0.944810000000     0.749980000000     0.249980000000     0          
Zr2304   Zr     0.444810000000     0.749980000000     0.749980000000     0          
O2305    O      0.470840000000     0.470840000000     0.470840000000     0          
O2306    O      0.470840000000     0.970840000000     0.970840000000     0          
O2307    O      0.970840000000     0.470840000000     0.970840000000     0          
O2308    O      0.970840000000     0.970840000000     0.470840000000     0          
O2309    O      0.279160000000     0.779160000000     0.970840000000     0          
O2310    O      0.279160000000     0.279160000000     0.470840000000     0          
O2311    O      0.779160000000     0.970840000000     0.279160000000     0          
O2312    O      0.779160000000     0.470840000000     0.779160000000     0          
O2313    O      0.279160000000     0.470840000000     0.279160000000     0          
O2314    O      0.970840000000     0.279160000000     0.779160000000     0          
O2315    O      0.470840000000     0.279160000000     0.279160000000     0          
O2316    O      0.220840000000     0.720840000000     0.029160000000     0          
O2317    O      0.220840000000     0.220840000000     0.529160000000     0          
O2318    O      0.529160000000     0.529160000000     0.529160000000     0          
O2319    O      0.529160000000     0.029160000000     0.029160000000     0          
O2320    O      0.029160000000     0.529160000000     0.029160000000     0          
O2321    O      0.029160000000     0.029160000000     0.529160000000     0          
O2322    O      0.720840000000     0.029160000000     0.220840000000     0          
O2323    O      0.720840000000     0.529160000000     0.720840000000     0          
O2324    O      0.220840000000     0.529160000000     0.220840000000     0          
O2325    O      0.029160000000     0.220840000000     0.720840000000     0          
O2326    O      0.529160000000     0.220840000000     0.220840000000     0          
O2327    O      0.720840000000     0.220840000000     0.029160000000     0          
O2328    O      0.720840000000     0.720840000000     0.529160000000     0          
O2329    O      0.220840000000     0.029160000000     0.720840000000     0          
O2330    O      0.029160000000     0.720840000000     0.220840000000     0          
O2331    O      0.529160000000     0.720840000000     0.720840000000     0          
O2332    O      0.779160000000     0.279160000000     0.970840000000     0          
O2333    O      0.779160000000     0.779160000000     0.470840000000     0          
O2334    O      0.279160000000     0.970840000000     0.779160000000     0          
O2335    O      0.970840000000     0.779160000000     0.279160000000     0          
O2336    O      0.470840000000     0.779160000000     0.779160000000     0          
O2337    O      0.472820000000     0.527150000000     0.472820000000     0          
C2338    C      0.428800000000     0.501700000000     0.428800000000     0          
C2339    C      0.405200000000     0.498300000000     0.405200000000     0          
O2340    O      0.472820000000     0.027150000000     0.972820000000     0          
C2341    C      0.428800000000     0.001700000000     0.928800000000     0          
C2342    C      0.405200000000     0.998300000000     0.905200000000     0          
O2343    O      0.972820000000     0.527150000000     0.972820000000     0          
C2344    C      0.928800000000     0.501700000000     0.928800000000     0          
C2345    C      0.905200000000     0.498300000000     0.905200000000     0          
O2346    O      0.972820000000     0.027150000000     0.472820000000     0          
C2347    C      0.928800000000     0.001700000000     0.428800000000     0          
C2348    C      0.905200000000     0.998300000000     0.405200000000     0          
O2349    O      0.277180000000     0.722850000000     0.972820000000     0          
C2350    C      0.321200000000     0.748300000000     0.928800000000     0          
C2351    C      0.344800000000     0.751700000000     0.905200000000     0          
O2352    O      0.277180000000     0.222850000000     0.472820000000     0          
C2353    C      0.321200000000     0.248300000000     0.428800000000     0          
C2354    C      0.344800000000     0.251700000000     0.405200000000     0          
O2355    O      0.777180000000     0.027150000000     0.277180000000     0          
C2356    C      0.821200000000     0.001700000000     0.321200000000     0          
C2357    C      0.844800000000     0.998300000000     0.344800000000     0          
O2358    O      0.777180000000     0.527150000000     0.777180000000     0          
C2359    C      0.821200000000     0.501700000000     0.821200000000     0          
C2360    C      0.844800000000     0.498300000000     0.844800000000     0          
O2361    O      0.277180000000     0.527150000000     0.277180000000     0          
C2362    C      0.321200000000     0.501700000000     0.321200000000     0          
C2363    C      0.344800000000     0.498300000000     0.344800000000     0          
O2364    O      0.972820000000     0.222850000000     0.777180000000     0          
C2365    C      0.928800000000     0.248300000000     0.821200000000     0          
C2366    C      0.905200000000     0.251700000000     0.844800000000     0          
O2367    O      0.472820000000     0.222850000000     0.277180000000     0          
C2368    C      0.428800000000     0.248300000000     0.321200000000     0          
C2369    C      0.405200000000     0.251700000000     0.344800000000     0          
O2370    O      0.472820000000     0.472820000000     0.527150000000     0          
C2371    C      0.428800000000     0.428800000000     0.501700000000     0          
C2372    C      0.405200000000     0.405200000000     0.498300000000     0          
O2373    O      0.472820000000     0.972820000000     0.027150000000     0          
C2374    C      0.428800000000     0.928800000000     0.001700000000     0          
C2375    C      0.405200000000     0.905200000000     0.998300000000     0          
O2376    O      0.972820000000     0.472820000000     0.027150000000     0          
C2377    C      0.928800000000     0.428800000000     0.001700000000     0          
C2378    C      0.905200000000     0.405200000000     0.998300000000     0          
O2379    O      0.972820000000     0.972820000000     0.527150000000     0          
C2380    C      0.928800000000     0.928800000000     0.501700000000     0          
C2381    C      0.905200000000     0.905200000000     0.498300000000     0          
O2382    O      0.972820000000     0.277180000000     0.722850000000     0          
C2383    C      0.928800000000     0.321200000000     0.748300000000     0          
C2384    C      0.905200000000     0.344800000000     0.751700000000     0          
O2385    O      0.472820000000     0.277180000000     0.222850000000     0          
C2386    C      0.428800000000     0.321200000000     0.248300000000     0          
C2387    C      0.405200000000     0.344800000000     0.251700000000     0          
O2388    O      0.277180000000     0.777180000000     0.027150000000     0          
C2389    C      0.321200000000     0.821200000000     0.001700000000     0          
C2390    C      0.344800000000     0.844800000000     0.998300000000     0          
O2391    O      0.277180000000     0.277180000000     0.527150000000     0          
C2392    C      0.321200000000     0.321200000000     0.501700000000     0          
C2393    C      0.344800000000     0.344800000000     0.498300000000     0          
O2394    O      0.777180000000     0.972820000000     0.222850000000     0          
C2395    C      0.821200000000     0.928800000000     0.248300000000     0          
C2396    C      0.844800000000     0.905200000000     0.251700000000     0          
O2397    O      0.777180000000     0.472820000000     0.722850000000     0          
C2398    C      0.821200000000     0.428800000000     0.748300000000     0          
C2399    C      0.844800000000     0.405200000000     0.751700000000     0          
O2400    O      0.277180000000     0.472820000000     0.222850000000     0          
C2401    C      0.321200000000     0.428800000000     0.248300000000     0          
C2402    C      0.344800000000     0.405200000000     0.251700000000     0          
O2403    O      0.527150000000     0.472820000000     0.472820000000     0          
C2404    C      0.501700000000     0.428800000000     0.428800000000     0          
C2405    C      0.498300000000     0.405200000000     0.405200000000     0          
O2406    O      0.527150000000     0.972820000000     0.972820000000     0          
C2407    C      0.501700000000     0.928800000000     0.928800000000     0          
C2408    C      0.498300000000     0.905200000000     0.905200000000     0          
O2409    O      0.027150000000     0.472820000000     0.972820000000     0          
C2410    C      0.001700000000     0.428800000000     0.928800000000     0          
C2411    C      0.998300000000     0.405200000000     0.905200000000     0          
O2412    O      0.027150000000     0.972820000000     0.472820000000     0          
C2413    C      0.001700000000     0.928800000000     0.428800000000     0          
C2414    C      0.998300000000     0.905200000000     0.405200000000     0          
O2415    O      0.722850000000     0.972820000000     0.277180000000     0          
C2416    C      0.748300000000     0.928800000000     0.321200000000     0          
C2417    C      0.751700000000     0.905200000000     0.344800000000     0          
O2418    O      0.722850000000     0.472820000000     0.777180000000     0          
C2419    C      0.748300000000     0.428800000000     0.821200000000     0          
C2420    C      0.751700000000     0.405200000000     0.844800000000     0          
O2421    O      0.222850000000     0.472820000000     0.277180000000     0          
C2422    C      0.248300000000     0.428800000000     0.321200000000     0          
C2423    C      0.251700000000     0.405200000000     0.344800000000     0          
O2424    O      0.027150000000     0.277180000000     0.777180000000     0          
C2425    C      0.001700000000     0.321200000000     0.821200000000     0          
C2426    C      0.998300000000     0.344800000000     0.844800000000     0          
O2427    O      0.527150000000     0.277180000000     0.277180000000     0          
C2428    C      0.501700000000     0.321200000000     0.321200000000     0          
C2429    C      0.498300000000     0.344800000000     0.344800000000     0          
O2430    O      0.222850000000     0.777180000000     0.972820000000     0          
C2431    C      0.248300000000     0.821200000000     0.928800000000     0          
C2432    C      0.251700000000     0.844800000000     0.905200000000     0          
O2433    O      0.222850000000     0.277180000000     0.472820000000     0          
C2434    C      0.248300000000     0.321200000000     0.428800000000     0          
C2435    C      0.251700000000     0.344800000000     0.405200000000     0          
O2436    O      0.277150000000     0.722820000000     0.027180000000     0          
C2437    C      0.251700000000     0.678800000000     0.071200000000     0          
C2438    C      0.248300000000     0.655200000000     0.094800000000     0          
O2439    O      0.277150000000     0.222820000000     0.527180000000     0          
C2440    C      0.251700000000     0.178800000000     0.571200000000     0          
C2441    C      0.248300000000     0.155200000000     0.594800000000     0          
O2442    O      0.472850000000     0.527180000000     0.527180000000     0          
C2443    C      0.498300000000     0.571200000000     0.571200000000     0          
C2444    C      0.501700000000     0.594800000000     0.594800000000     0          
O2445    O      0.472850000000     0.027180000000     0.027180000000     0          
C2446    C      0.498300000000     0.071200000000     0.071200000000     0          
C2447    C      0.501700000000     0.094800000000     0.094800000000     0          
O2448    O      0.972850000000     0.527180000000     0.027180000000     0          
C2449    C      0.998300000000     0.571200000000     0.071200000000     0          
C2450    C      0.001700000000     0.594800000000     0.094800000000     0          
O2451    O      0.972850000000     0.027180000000     0.527180000000     0          
C2452    C      0.998300000000     0.071200000000     0.571200000000     0          
C2453    C      0.001700000000     0.094800000000     0.594800000000     0          
O2454    O      0.777150000000     0.027180000000     0.222820000000     0          
C2455    C      0.751700000000     0.071200000000     0.178800000000     0          
C2456    C      0.748300000000     0.094800000000     0.155200000000     0          
O2457    O      0.777150000000     0.527180000000     0.722820000000     0          
C2458    C      0.751700000000     0.571200000000     0.678800000000     0          
C2459    C      0.748300000000     0.594800000000     0.655200000000     0          
O2460    O      0.277150000000     0.527180000000     0.222820000000     0          
C2461    C      0.251700000000     0.571200000000     0.178800000000     0          
C2462    C      0.248300000000     0.594800000000     0.155200000000     0          
O2463    O      0.972850000000     0.222820000000     0.722820000000     0          
C2464    C      0.998300000000     0.178800000000     0.678800000000     0          
C2465    C      0.001700000000     0.155200000000     0.655200000000     0          
O2466    O      0.472850000000     0.222820000000     0.222820000000     0          
C2467    C      0.498300000000     0.178800000000     0.178800000000     0          
C2468    C      0.501700000000     0.155200000000     0.155200000000     0          
O2469    O      0.222820000000     0.722820000000     0.972850000000     0          
C2470    C      0.178800000000     0.678800000000     0.998300000000     0          
C2471    C      0.155200000000     0.655200000000     0.001700000000     0          
O2472    O      0.222820000000     0.222820000000     0.472850000000     0          
C2473    C      0.178800000000     0.178800000000     0.498300000000     0          
C2474    C      0.155200000000     0.155200000000     0.501700000000     0          
O2475    O      0.027180000000     0.222820000000     0.777150000000     0          
C2476    C      0.071200000000     0.178800000000     0.751700000000     0          
C2477    C      0.094800000000     0.155200000000     0.748300000000     0          
O2478    O      0.527180000000     0.222820000000     0.277150000000     0          
C2479    C      0.571200000000     0.178800000000     0.251700000000     0          
C2480    C      0.594800000000     0.155200000000     0.248300000000     0          
O2481    O      0.527180000000     0.527180000000     0.472850000000     0          
C2482    C      0.571200000000     0.571200000000     0.498300000000     0          
C2483    C      0.594800000000     0.594800000000     0.501700000000     0          
O2484    O      0.527180000000     0.027180000000     0.972850000000     0          
C2485    C      0.571200000000     0.071200000000     0.998300000000     0          
C2486    C      0.594800000000     0.094800000000     0.001700000000     0          
O2487    O      0.027180000000     0.527180000000     0.972850000000     0          
C2488    C      0.071200000000     0.571200000000     0.998300000000     0          
C2489    C      0.094800000000     0.594800000000     0.001700000000     0          
O2490    O      0.027180000000     0.027180000000     0.472850000000     0          
C2491    C      0.071200000000     0.071200000000     0.498300000000     0          
C2492    C      0.094800000000     0.094800000000     0.501700000000     0          
O2493    O      0.722820000000     0.027180000000     0.277150000000     0          
C2494    C      0.678800000000     0.071200000000     0.251700000000     0          
C2495    C      0.655200000000     0.094800000000     0.248300000000     0          
O2496    O      0.722820000000     0.527180000000     0.777150000000     0          
C2497    C      0.678800000000     0.571200000000     0.751700000000     0          
C2498    C      0.655200000000     0.594800000000     0.748300000000     0          
O2499    O      0.222820000000     0.527180000000     0.277150000000     0          
C2500    C      0.178800000000     0.571200000000     0.251700000000     0          
C2501    C      0.155200000000     0.594800000000     0.248300000000     0          
O2502    O      0.222820000000     0.777150000000     0.027180000000     0          
C2503    C      0.178800000000     0.751700000000     0.071200000000     0          
C2504    C      0.155200000000     0.748300000000     0.094800000000     0          
O2505    O      0.222820000000     0.277150000000     0.527180000000     0          
C2506    C      0.178800000000     0.251700000000     0.571200000000     0          
C2507    C      0.155200000000     0.248300000000     0.594800000000     0          
O2508    O      0.722820000000     0.972850000000     0.222820000000     0          
C2509    C      0.678800000000     0.998300000000     0.178800000000     0          
C2510    C      0.655200000000     0.001700000000     0.155200000000     0          
O2511    O      0.722820000000     0.472850000000     0.722820000000     0          
C2512    C      0.678800000000     0.498300000000     0.678800000000     0          
C2513    C      0.655200000000     0.501700000000     0.655200000000     0          
O2514    O      0.222820000000     0.472850000000     0.222820000000     0          
C2515    C      0.178800000000     0.498300000000     0.178800000000     0          
C2516    C      0.155200000000     0.501700000000     0.155200000000     0          
O2517    O      0.027180000000     0.277150000000     0.722820000000     0          
C2518    C      0.071200000000     0.251700000000     0.678800000000     0          
C2519    C      0.094800000000     0.248300000000     0.655200000000     0          
O2520    O      0.527180000000     0.277150000000     0.222820000000     0          
C2521    C      0.571200000000     0.251700000000     0.178800000000     0          
C2522    C      0.594800000000     0.248300000000     0.155200000000     0          
O2523    O      0.527180000000     0.472850000000     0.527180000000     0          
C2524    C      0.571200000000     0.498300000000     0.571200000000     0          
C2525    C      0.594800000000     0.501700000000     0.594800000000     0          
O2526    O      0.527180000000     0.972850000000     0.027180000000     0          
C2527    C      0.571200000000     0.998300000000     0.071200000000     0          
C2528    C      0.594800000000     0.001700000000     0.094800000000     0          
O2529    O      0.027180000000     0.472850000000     0.027180000000     0          
C2530    C      0.071200000000     0.498300000000     0.071200000000     0          
C2531    C      0.094800000000     0.501700000000     0.094800000000     0          
O2532    O      0.027180000000     0.972850000000     0.527180000000     0          
C2533    C      0.071200000000     0.998300000000     0.571200000000     0          
C2534    C      0.094800000000     0.001700000000     0.594800000000     0          
O2535    O      0.722820000000     0.277150000000     0.027180000000     0          
C2536    C      0.678800000000     0.251700000000     0.071200000000     0          
C2537    C      0.655200000000     0.248300000000     0.094800000000     0          
O2538    O      0.722820000000     0.777150000000     0.527180000000     0          
C2539    C      0.678800000000     0.751700000000     0.571200000000     0          
C2540    C      0.655200000000     0.748300000000     0.594800000000     0          
O2541    O      0.222820000000     0.972850000000     0.722820000000     0          
C2542    C      0.178800000000     0.998300000000     0.678800000000     0          
C2543    C      0.155200000000     0.001700000000     0.655200000000     0          
O2544    O      0.027180000000     0.777150000000     0.222820000000     0          
C2545    C      0.071200000000     0.751700000000     0.178800000000     0          
C2546    C      0.094800000000     0.748300000000     0.155200000000     0          
O2547    O      0.527180000000     0.777150000000     0.722820000000     0          
C2548    C      0.571200000000     0.751700000000     0.678800000000     0          
C2549    C      0.594800000000     0.748300000000     0.655200000000     0          
O2550    O      0.027180000000     0.722820000000     0.277150000000     0          
C2551    C      0.071200000000     0.678800000000     0.251700000000     0          
C2552    C      0.094800000000     0.655200000000     0.248300000000     0          
O2553    O      0.527180000000     0.722820000000     0.777150000000     0          
C2554    C      0.571200000000     0.678800000000     0.751700000000     0          
C2555    C      0.594800000000     0.655200000000     0.748300000000     0          
O2556    O      0.722820000000     0.222820000000     0.972850000000     0          
C2557    C      0.678800000000     0.178800000000     0.998300000000     0          
C2558    C      0.655200000000     0.155200000000     0.001700000000     0          
O2559    O      0.722820000000     0.722820000000     0.472850000000     0          
C2560    C      0.678800000000     0.678800000000     0.498300000000     0          
C2561    C      0.655200000000     0.655200000000     0.501700000000     0          
O2562    O      0.222820000000     0.027180000000     0.777150000000     0          
C2563    C      0.178800000000     0.071200000000     0.751700000000     0          
C2564    C      0.155200000000     0.094800000000     0.748300000000     0          
O2565    O      0.277150000000     0.027180000000     0.722820000000     0          
C2566    C      0.251700000000     0.071200000000     0.678800000000     0          
C2567    C      0.248300000000     0.094800000000     0.655200000000     0          
O2568    O      0.972850000000     0.722820000000     0.222820000000     0          
C2569    C      0.998300000000     0.678800000000     0.178800000000     0          
C2570    C      0.001700000000     0.655200000000     0.155200000000     0          
O2571    O      0.472850000000     0.722820000000     0.722820000000     0          
C2572    C      0.498300000000     0.678800000000     0.678800000000     0          
C2573    C      0.501700000000     0.655200000000     0.655200000000     0          
O2574    O      0.777150000000     0.222820000000     0.027180000000     0          
C2575    C      0.751700000000     0.178800000000     0.071200000000     0          
C2576    C      0.748300000000     0.155200000000     0.094800000000     0          
O2577    O      0.777150000000     0.722820000000     0.527180000000     0          
C2578    C      0.751700000000     0.678800000000     0.571200000000     0          
C2579    C      0.748300000000     0.655200000000     0.594800000000     0          
O2580    O      0.722850000000     0.277180000000     0.972820000000     0          
C2581    C      0.748300000000     0.321200000000     0.928800000000     0          
C2582    C      0.751700000000     0.344800000000     0.905200000000     0          
O2583    O      0.722850000000     0.777180000000     0.472820000000     0          
C2584    C      0.748300000000     0.821200000000     0.428800000000     0          
C2585    C      0.751700000000     0.844800000000     0.405200000000     0          
O2586    O      0.222850000000     0.972820000000     0.777180000000     0          
C2587    C      0.248300000000     0.928800000000     0.821200000000     0          
C2588    C      0.251700000000     0.905200000000     0.844800000000     0          
O2589    O      0.027150000000     0.777180000000     0.277180000000     0          
C2590    C      0.001700000000     0.821200000000     0.321200000000     0          
C2591    C      0.998300000000     0.844800000000     0.344800000000     0          
O2592    O      0.527150000000     0.777180000000     0.777180000000     0          
C2593    C      0.501700000000     0.821200000000     0.821200000000     0          
C2594    C      0.498300000000     0.844800000000     0.844800000000     0          
O2595    O      0.777180000000     0.277180000000     0.027150000000     0          
C2596    C      0.821200000000     0.321200000000     0.001700000000     0          
C2597    C      0.844800000000     0.344800000000     0.998300000000     0          
O2598    O      0.777180000000     0.777180000000     0.527150000000     0          
C2599    C      0.821200000000     0.821200000000     0.501700000000     0          
C2600    C      0.844800000000     0.844800000000     0.498300000000     0          
O2601    O      0.972820000000     0.777180000000     0.222850000000     0          
C2602    C      0.928800000000     0.821200000000     0.248300000000     0          
C2603    C      0.905200000000     0.844800000000     0.251700000000     0          
O2604    O      0.472820000000     0.777180000000     0.722850000000     0          
C2605    C      0.428800000000     0.821200000000     0.748300000000     0          
C2606    C      0.405200000000     0.844800000000     0.751700000000     0          
O2607    O      0.277180000000     0.972820000000     0.722850000000     0          
C2608    C      0.321200000000     0.928800000000     0.748300000000     0          
C2609    C      0.344800000000     0.905200000000     0.751700000000     0          
O2610    O      0.777180000000     0.222850000000     0.972820000000     0          
C2611    C      0.821200000000     0.248300000000     0.928800000000     0          
C2612    C      0.844800000000     0.251700000000     0.905200000000     0          
O2613    O      0.777180000000     0.722850000000     0.472820000000     0          
C2614    C      0.821200000000     0.748300000000     0.428800000000     0          
C2615    C      0.844800000000     0.751700000000     0.405200000000     0          
O2616    O      0.277180000000     0.027150000000     0.777180000000     0          
C2617    C      0.321200000000     0.001700000000     0.821200000000     0          
C2618    C      0.344800000000     0.998300000000     0.844800000000     0          
O2619    O      0.972820000000     0.722850000000     0.277180000000     0          
C2620    C      0.928800000000     0.748300000000     0.321200000000     0          
C2621    C      0.905200000000     0.751700000000     0.344800000000     0          
O2622    O      0.472820000000     0.722850000000     0.777180000000     0          
C2623    C      0.428800000000     0.748300000000     0.821200000000     0          
C2624    C      0.405200000000     0.751700000000     0.844800000000     0          
C2625    C      0.500000000000     0.570080000000     0.429920000000     0          
C2626    C      0.500000000000     0.593100000000     0.406900000000     0          
C2627    C      0.500000000000     0.637430000000     0.362570000000     0          
C2628    C      0.500000000000     0.660230000000     0.339770000000     0          
C2629    C      0.500000000000     0.704470000000     0.295530000000     0          
C2630    C      0.500000000000     0.728160000000     0.271840000000     0          
C2631    C      0.500000000000     0.070080000000     0.929920000000     0          
C2632    C      0.500000000000     0.093100000000     0.906900000000     0          
C2633    C      0.500000000000     0.137430000000     0.862570000000     0          
C2634    C      0.500000000000     0.160230000000     0.839770000000     0          
C2635    C      0.500000000000     0.204470000000     0.795530000000     0          
C2636    C      0.500000000000     0.228160000000     0.771840000000     0          
C2637    C      0.000000000000     0.570080000000     0.929920000000     0          
C2638    C      0.000000000000     0.593100000000     0.906900000000     0          
C2639    C      0.000000000000     0.637430000000     0.862570000000     0          
C2640    C      0.000000000000     0.660230000000     0.839770000000     0          
C2641    C      0.000000000000     0.704470000000     0.795530000000     0          
C2642    C      0.000000000000     0.728160000000     0.771840000000     0          
C2643    C      0.000000000000     0.070080000000     0.429920000000     0          
C2644    C      0.000000000000     0.093100000000     0.406900000000     0          
C2645    C      0.000000000000     0.137430000000     0.362570000000     0          
C2646    C      0.000000000000     0.160230000000     0.339770000000     0          
C2647    C      0.000000000000     0.204470000000     0.295530000000     0          
C2648    C      0.000000000000     0.228160000000     0.271840000000     0          
C2649    C      0.250000000000     0.679920000000     0.929920000000     0          
C2650    C      0.250000000000     0.656900000000     0.906900000000     0          
C2651    C      0.250000000000     0.612570000000     0.862570000000     0          
C2652    C      0.250000000000     0.589770000000     0.839770000000     0          
C2653    C      0.250000000000     0.545530000000     0.795530000000     0          
C2654    C      0.250000000000     0.521840000000     0.771840000000     0          
C2655    C      0.250000000000     0.179920000000     0.429920000000     0          
C2656    C      0.250000000000     0.156900000000     0.406900000000     0          
C2657    C      0.250000000000     0.112570000000     0.362570000000     0          
C2658    C      0.250000000000     0.089770000000     0.339770000000     0          
C2659    C      0.250000000000     0.045530000000     0.295530000000     0          
C2660    C      0.250000000000     0.021840000000     0.271840000000     0          
C2661    C      0.750000000000     0.679920000000     0.429920000000     0          
C2662    C      0.750000000000     0.656900000000     0.406900000000     0          
C2663    C      0.750000000000     0.612570000000     0.362570000000     0          
C2664    C      0.750000000000     0.589770000000     0.339770000000     0          
C2665    C      0.750000000000     0.545530000000     0.295530000000     0          
C2666    C      0.750000000000     0.521840000000     0.271840000000     0          
C2667    C      0.750000000000     0.179920000000     0.929920000000     0          
C2668    C      0.750000000000     0.156900000000     0.906900000000     0          
C2669    C      0.750000000000     0.112570000000     0.862570000000     0          
C2670    C      0.750000000000     0.089770000000     0.839770000000     0          
C2671    C      0.750000000000     0.045530000000     0.795530000000     0          
C2672    C      0.750000000000     0.021840000000     0.771840000000     0          
C2673    C      0.750000000000     0.070080000000     0.320080000000     0          
C2674    C      0.750000000000     0.093100000000     0.343100000000     0          
C2675    C      0.750000000000     0.137430000000     0.387430000000     0          
C2676    C      0.750000000000     0.160230000000     0.410230000000     0          
C2677    C      0.750000000000     0.204470000000     0.454470000000     0          
C2678    C      0.750000000000     0.228160000000     0.478160000000     0          
C2679    C      0.750000000000     0.570080000000     0.820080000000     0          
C2680    C      0.750000000000     0.593100000000     0.843100000000     0          
C2681    C      0.750000000000     0.637430000000     0.887430000000     0          
C2682    C      0.750000000000     0.660230000000     0.910230000000     0          
C2683    C      0.750000000000     0.704470000000     0.954470000000     0          
C2684    C      0.750000000000     0.728160000000     0.978160000000     0          
C2685    C      0.250000000000     0.070080000000     0.820080000000     0          
C2686    C      0.250000000000     0.093100000000     0.843100000000     0          
C2687    C      0.250000000000     0.137430000000     0.887430000000     0          
C2688    C      0.250000000000     0.160230000000     0.910230000000     0          
C2689    C      0.250000000000     0.204470000000     0.954470000000     0          
C2690    C      0.250000000000     0.228160000000     0.978160000000     0          
C2691    C      0.250000000000     0.570080000000     0.320080000000     0          
C2692    C      0.250000000000     0.593100000000     0.343100000000     0          
C2693    C      0.250000000000     0.637430000000     0.387430000000     0          
C2694    C      0.250000000000     0.660230000000     0.410230000000     0          
C2695    C      0.250000000000     0.704470000000     0.454470000000     0          
C2696    C      0.250000000000     0.728160000000     0.478160000000     0          
C2697    C      0.000000000000     0.179920000000     0.820080000000     0          
C2698    C      0.000000000000     0.156900000000     0.843100000000     0          
C2699    C      0.000000000000     0.112570000000     0.887430000000     0          
C2700    C      0.000000000000     0.089770000000     0.910230000000     0          
C2701    C      0.000000000000     0.045530000000     0.954470000000     0          
C2702    C      0.000000000000     0.021840000000     0.978160000000     0          
C2703    C      0.000000000000     0.679920000000     0.320080000000     0          
C2704    C      0.000000000000     0.656900000000     0.343100000000     0          
C2705    C      0.000000000000     0.612570000000     0.387430000000     0          
C2706    C      0.000000000000     0.589770000000     0.410230000000     0          
C2707    C      0.000000000000     0.545530000000     0.454470000000     0          
C2708    C      0.000000000000     0.521840000000     0.478160000000     0          
C2709    C      0.500000000000     0.179920000000     0.320080000000     0          
C2710    C      0.500000000000     0.156900000000     0.343100000000     0          
C2711    C      0.500000000000     0.112570000000     0.387430000000     0          
C2712    C      0.500000000000     0.089770000000     0.410230000000     0          
C2713    C      0.500000000000     0.045530000000     0.454470000000     0          
C2714    C      0.500000000000     0.021840000000     0.478160000000     0          
C2715    C      0.500000000000     0.679920000000     0.820080000000     0          
C2716    C      0.500000000000     0.656900000000     0.843100000000     0          
C2717    C      0.500000000000     0.612570000000     0.887430000000     0          
C2718    C      0.500000000000     0.589770000000     0.910230000000     0          
C2719    C      0.500000000000     0.545530000000     0.954470000000     0          
C2720    C      0.500000000000     0.521840000000     0.978160000000     0          
C2721    C      0.429920000000     0.500000000000     0.570080000000     0          
C2722    C      0.406900000000     0.500000000000     0.593100000000     0          
C2723    C      0.362570000000     0.500000000000     0.637430000000     0          
C2724    C      0.339770000000     0.500000000000     0.660230000000     0          
C2725    C      0.295530000000     0.500000000000     0.704470000000     0          
C2726    C      0.271840000000     0.500000000000     0.728160000000     0          
C2727    C      0.429920000000     0.000000000000     0.070080000000     0          
C2728    C      0.406900000000     0.000000000000     0.093100000000     0          
C2729    C      0.362570000000     0.000000000000     0.137430000000     0          
C2730    C      0.339770000000     0.000000000000     0.160230000000     0          
C2731    C      0.295530000000     0.000000000000     0.204470000000     0          
C2732    C      0.271840000000     0.000000000000     0.228160000000     0          
C2733    C      0.929920000000     0.500000000000     0.070080000000     0          
C2734    C      0.906900000000     0.500000000000     0.093100000000     0          
C2735    C      0.862570000000     0.500000000000     0.137430000000     0          
C2736    C      0.839770000000     0.500000000000     0.160230000000     0          
C2737    C      0.795530000000     0.500000000000     0.204470000000     0          
C2738    C      0.771840000000     0.500000000000     0.228160000000     0          
C2739    C      0.929920000000     0.000000000000     0.570080000000     0          
C2740    C      0.906900000000     0.000000000000     0.593100000000     0          
C2741    C      0.862570000000     0.000000000000     0.637430000000     0          
C2742    C      0.839770000000     0.000000000000     0.660230000000     0          
C2743    C      0.795530000000     0.000000000000     0.704470000000     0          
C2744    C      0.771840000000     0.000000000000     0.728160000000     0          
C2745    C      0.929920000000     0.250000000000     0.679920000000     0          
C2746    C      0.906900000000     0.250000000000     0.656900000000     0          
C2747    C      0.862570000000     0.250000000000     0.612570000000     0          
C2748    C      0.839770000000     0.250000000000     0.589770000000     0          
C2749    C      0.795530000000     0.250000000000     0.545530000000     0          
C2750    C      0.771840000000     0.250000000000     0.521840000000     0          
C2751    C      0.929920000000     0.750000000000     0.179920000000     0          
C2752    C      0.906900000000     0.750000000000     0.156900000000     0          
C2753    C      0.862570000000     0.750000000000     0.112570000000     0          
C2754    C      0.839770000000     0.750000000000     0.089770000000     0          
C2755    C      0.795530000000     0.750000000000     0.045530000000     0          
C2756    C      0.771840000000     0.750000000000     0.021840000000     0          
C2757    C      0.429920000000     0.250000000000     0.179920000000     0          
C2758    C      0.406900000000     0.250000000000     0.156900000000     0          
C2759    C      0.362570000000     0.250000000000     0.112570000000     0          
C2760    C      0.339770000000     0.250000000000     0.089770000000     0          
C2761    C      0.295530000000     0.250000000000     0.045530000000     0          
C2762    C      0.271840000000     0.250000000000     0.021840000000     0          
C2763    C      0.429920000000     0.750000000000     0.679920000000     0          
C2764    C      0.406900000000     0.750000000000     0.656900000000     0          
C2765    C      0.362570000000     0.750000000000     0.612570000000     0          
C2766    C      0.339770000000     0.750000000000     0.589770000000     0          
C2767    C      0.295530000000     0.750000000000     0.545530000000     0          
C2768    C      0.271840000000     0.750000000000     0.521840000000     0          
C2769    C      0.320080000000     0.750000000000     0.070080000000     0          
C2770    C      0.343100000000     0.750000000000     0.093100000000     0          
C2771    C      0.387430000000     0.750000000000     0.137430000000     0          
C2772    C      0.410230000000     0.750000000000     0.160230000000     0          
C2773    C      0.454470000000     0.750000000000     0.204470000000     0          
C2774    C      0.478160000000     0.750000000000     0.228160000000     0          
C2775    C      0.320080000000     0.250000000000     0.570080000000     0          
C2776    C      0.343100000000     0.250000000000     0.593100000000     0          
C2777    C      0.387430000000     0.250000000000     0.637430000000     0          
C2778    C      0.410230000000     0.250000000000     0.660230000000     0          
C2779    C      0.454470000000     0.250000000000     0.704470000000     0          
C2780    C      0.478160000000     0.250000000000     0.728160000000     0          
C2781    C      0.820080000000     0.750000000000     0.570080000000     0          
C2782    C      0.843100000000     0.750000000000     0.593100000000     0          
C2783    C      0.887430000000     0.750000000000     0.637430000000     0          
C2784    C      0.910230000000     0.750000000000     0.660230000000     0          
C2785    C      0.954470000000     0.750000000000     0.704470000000     0          
C2786    C      0.978160000000     0.750000000000     0.728160000000     0          
C2787    C      0.820080000000     0.250000000000     0.070080000000     0          
C2788    C      0.843100000000     0.250000000000     0.093100000000     0          
C2789    C      0.887430000000     0.250000000000     0.137430000000     0          
C2790    C      0.910230000000     0.250000000000     0.160230000000     0          
C2791    C      0.954470000000     0.250000000000     0.204470000000     0          
C2792    C      0.978160000000     0.250000000000     0.228160000000     0          
C2793    C      0.820080000000     0.000000000000     0.179920000000     0          
C2794    C      0.843100000000     0.000000000000     0.156900000000     0          
C2795    C      0.887430000000     0.000000000000     0.112570000000     0          
C2796    C      0.910230000000     0.000000000000     0.089770000000     0          
C2797    C      0.954470000000     0.000000000000     0.045530000000     0          
C2798    C      0.978160000000     0.000000000000     0.021840000000     0          
C2799    C      0.820080000000     0.500000000000     0.679920000000     0          
C2800    C      0.843100000000     0.500000000000     0.656900000000     0          
C2801    C      0.887430000000     0.500000000000     0.612570000000     0          
C2802    C      0.910230000000     0.500000000000     0.589770000000     0          
C2803    C      0.954470000000     0.500000000000     0.545530000000     0          
C2804    C      0.978160000000     0.500000000000     0.521840000000     0          
C2805    C      0.320080000000     0.000000000000     0.679920000000     0          
C2806    C      0.343100000000     0.000000000000     0.656900000000     0          
C2807    C      0.387430000000     0.000000000000     0.612570000000     0          
C2808    C      0.410230000000     0.000000000000     0.589770000000     0          
C2809    C      0.454470000000     0.000000000000     0.545530000000     0          
C2810    C      0.478160000000     0.000000000000     0.521840000000     0          
C2811    C      0.320080000000     0.500000000000     0.179920000000     0          
C2812    C      0.343100000000     0.500000000000     0.156900000000     0          
C2813    C      0.387430000000     0.500000000000     0.112570000000     0          
C2814    C      0.410230000000     0.500000000000     0.089770000000     0          
C2815    C      0.454470000000     0.500000000000     0.045530000000     0          
C2816    C      0.478160000000     0.500000000000     0.021840000000     0          
C2817    C      0.570080000000     0.429920000000     0.500000000000     0          
C2818    C      0.593100000000     0.406900000000     0.500000000000     0          
C2819    C      0.637430000000     0.362570000000     0.500000000000     0          
C2820    C      0.660230000000     0.339770000000     0.500000000000     0          
C2821    C      0.704470000000     0.295530000000     0.500000000000     0          
C2822    C      0.728160000000     0.271840000000     0.500000000000     0          
C2823    C      0.570080000000     0.929920000000     0.000000000000     0          
C2824    C      0.593100000000     0.906900000000     0.000000000000     0          
C2825    C      0.637430000000     0.862570000000     0.000000000000     0          
C2826    C      0.660230000000     0.839770000000     0.000000000000     0          
C2827    C      0.704470000000     0.795530000000     0.000000000000     0          
C2828    C      0.728160000000     0.771840000000     0.000000000000     0          
C2829    C      0.070080000000     0.429920000000     0.000000000000     0          
C2830    C      0.093100000000     0.406900000000     0.000000000000     0          
C2831    C      0.137430000000     0.362570000000     0.000000000000     0          
C2832    C      0.160230000000     0.339770000000     0.000000000000     0          
C2833    C      0.204470000000     0.295530000000     0.000000000000     0          
C2834    C      0.228160000000     0.271840000000     0.000000000000     0          
C2835    C      0.070080000000     0.929920000000     0.500000000000     0          
C2836    C      0.093100000000     0.906900000000     0.500000000000     0          
C2837    C      0.137430000000     0.862570000000     0.500000000000     0          
C2838    C      0.160230000000     0.839770000000     0.500000000000     0          
C2839    C      0.204470000000     0.795530000000     0.500000000000     0          
C2840    C      0.228160000000     0.771840000000     0.500000000000     0          
C2841    C      0.679920000000     0.929920000000     0.250000000000     0          
C2842    C      0.656900000000     0.906900000000     0.250000000000     0          
C2843    C      0.612570000000     0.862570000000     0.250000000000     0          
C2844    C      0.589770000000     0.839770000000     0.250000000000     0          
C2845    C      0.545530000000     0.795530000000     0.250000000000     0          
C2846    C      0.521840000000     0.771840000000     0.250000000000     0          
C2847    C      0.679920000000     0.429920000000     0.750000000000     0          
C2848    C      0.656900000000     0.406900000000     0.750000000000     0          
C2849    C      0.612570000000     0.362570000000     0.750000000000     0          
C2850    C      0.589770000000     0.339770000000     0.750000000000     0          
C2851    C      0.545530000000     0.295530000000     0.750000000000     0          
C2852    C      0.521840000000     0.271840000000     0.750000000000     0          
C2853    C      0.179920000000     0.929920000000     0.750000000000     0          
C2854    C      0.156900000000     0.906900000000     0.750000000000     0          
C2855    C      0.112570000000     0.862570000000     0.750000000000     0          
C2856    C      0.089770000000     0.839770000000     0.750000000000     0          
C2857    C      0.045530000000     0.795530000000     0.750000000000     0          
C2858    C      0.021840000000     0.771840000000     0.750000000000     0          
C2859    C      0.179920000000     0.429920000000     0.250000000000     0          
C2860    C      0.156900000000     0.406900000000     0.250000000000     0          
C2861    C      0.112570000000     0.362570000000     0.250000000000     0          
C2862    C      0.089770000000     0.339770000000     0.250000000000     0          
C2863    C      0.045530000000     0.295530000000     0.250000000000     0          
C2864    C      0.021840000000     0.271840000000     0.250000000000     0          
C2865    C      0.070080000000     0.320080000000     0.750000000000     0          
C2866    C      0.093100000000     0.343100000000     0.750000000000     0          
C2867    C      0.137430000000     0.387430000000     0.750000000000     0          
C2868    C      0.160230000000     0.410230000000     0.750000000000     0          
C2869    C      0.204470000000     0.454470000000     0.750000000000     0          
C2870    C      0.228160000000     0.478160000000     0.750000000000     0          
C2871    C      0.070080000000     0.820080000000     0.250000000000     0          
C2872    C      0.093100000000     0.843100000000     0.250000000000     0          
C2873    C      0.137430000000     0.887430000000     0.250000000000     0          
C2874    C      0.160230000000     0.910230000000     0.250000000000     0          
C2875    C      0.204470000000     0.954470000000     0.250000000000     0          
C2876    C      0.228160000000     0.978160000000     0.250000000000     0          
C2877    C      0.570080000000     0.320080000000     0.250000000000     0          
C2878    C      0.593100000000     0.343100000000     0.250000000000     0          
C2879    C      0.637430000000     0.387430000000     0.250000000000     0          
C2880    C      0.660230000000     0.410230000000     0.250000000000     0          
C2881    C      0.704470000000     0.454470000000     0.250000000000     0          
C2882    C      0.728160000000     0.478160000000     0.250000000000     0          
C2883    C      0.570080000000     0.820080000000     0.750000000000     0          
C2884    C      0.593100000000     0.843100000000     0.750000000000     0          
C2885    C      0.637430000000     0.887430000000     0.750000000000     0          
C2886    C      0.660230000000     0.910230000000     0.750000000000     0          
C2887    C      0.704470000000     0.954470000000     0.750000000000     0          
C2888    C      0.728160000000     0.978160000000     0.750000000000     0          
C2889    C      0.179920000000     0.820080000000     0.000000000000     0          
C2890    C      0.156900000000     0.843100000000     0.000000000000     0          
C2891    C      0.112570000000     0.887430000000     0.000000000000     0          
C2892    C      0.089770000000     0.910230000000     0.000000000000     0          
C2893    C      0.045530000000     0.954470000000     0.000000000000     0          
C2894    C      0.021840000000     0.978160000000     0.000000000000     0          
C2895    C      0.179920000000     0.320080000000     0.500000000000     0          
C2896    C      0.156900000000     0.343100000000     0.500000000000     0          
C2897    C      0.112570000000     0.387430000000     0.500000000000     0          
C2898    C      0.089770000000     0.410230000000     0.500000000000     0          
C2899    C      0.045530000000     0.454470000000     0.500000000000     0          
C2900    C      0.021840000000     0.478160000000     0.500000000000     0          
C2901    C      0.679920000000     0.820080000000     0.500000000000     0          
C2902    C      0.656900000000     0.843100000000     0.500000000000     0          
C2903    C      0.612570000000     0.887430000000     0.500000000000     0          
C2904    C      0.589770000000     0.910230000000     0.500000000000     0          
C2905    C      0.545530000000     0.954470000000     0.500000000000     0          
C2906    C      0.521840000000     0.978160000000     0.500000000000     0          
C2907    C      0.679920000000     0.320080000000     0.000000000000     0          
C2908    C      0.656900000000     0.343100000000     0.000000000000     0          
C2909    C      0.612570000000     0.387430000000     0.000000000000     0          
C2910    C      0.589770000000     0.410230000000     0.000000000000     0          
C2911    C      0.545530000000     0.454470000000     0.000000000000     0          
C2912    C      0.521840000000     0.478160000000     0.000000000000     0          
C2913    C      0.500000000000     0.429920000000     0.570080000000     0          
C2914    C      0.500000000000     0.406900000000     0.593100000000     0          
C2915    C      0.500000000000     0.362570000000     0.637430000000     0          
C2916    C      0.500000000000     0.339770000000     0.660230000000     0          
C2917    C      0.500000000000     0.295530000000     0.704470000000     0          
C2918    C      0.500000000000     0.271840000000     0.728160000000     0          
C2919    C      0.500000000000     0.929920000000     0.070080000000     0          
C2920    C      0.500000000000     0.906900000000     0.093100000000     0          
C2921    C      0.500000000000     0.862570000000     0.137430000000     0          
C2922    C      0.500000000000     0.839770000000     0.160230000000     0          
C2923    C      0.500000000000     0.795530000000     0.204470000000     0          
C2924    C      0.500000000000     0.771840000000     0.228160000000     0          
C2925    C      0.000000000000     0.429920000000     0.070080000000     0          
C2926    C      0.000000000000     0.406900000000     0.093100000000     0          
C2927    C      0.000000000000     0.362570000000     0.137430000000     0          
C2928    C      0.000000000000     0.339770000000     0.160230000000     0          
C2929    C      0.000000000000     0.295530000000     0.204470000000     0          
C2930    C      0.000000000000     0.271840000000     0.228160000000     0          
C2931    C      0.000000000000     0.929920000000     0.570080000000     0          
C2932    C      0.000000000000     0.906900000000     0.593100000000     0          
C2933    C      0.000000000000     0.862570000000     0.637430000000     0          
C2934    C      0.000000000000     0.839770000000     0.660230000000     0          
C2935    C      0.000000000000     0.795530000000     0.704470000000     0          
C2936    C      0.000000000000     0.771840000000     0.728160000000     0          
C2937    C      0.750000000000     0.320080000000     0.070080000000     0          
C2938    C      0.750000000000     0.343100000000     0.093100000000     0          
C2939    C      0.750000000000     0.387430000000     0.137430000000     0          
C2940    C      0.750000000000     0.410230000000     0.160230000000     0          
C2941    C      0.750000000000     0.454470000000     0.204470000000     0          
C2942    C      0.750000000000     0.478160000000     0.228160000000     0          
C2943    C      0.750000000000     0.820080000000     0.570080000000     0          
C2944    C      0.750000000000     0.843100000000     0.593100000000     0          
C2945    C      0.750000000000     0.887430000000     0.637430000000     0          
C2946    C      0.750000000000     0.910230000000     0.660230000000     0          
C2947    C      0.750000000000     0.954470000000     0.704470000000     0          
C2948    C      0.750000000000     0.978160000000     0.728160000000     0          
C2949    C      0.250000000000     0.320080000000     0.570080000000     0          
C2950    C      0.250000000000     0.343100000000     0.593100000000     0          
C2951    C      0.250000000000     0.387430000000     0.637430000000     0          
C2952    C      0.250000000000     0.410230000000     0.660230000000     0          
C2953    C      0.250000000000     0.454470000000     0.704470000000     0          
C2954    C      0.250000000000     0.478160000000     0.728160000000     0          
C2955    C      0.250000000000     0.820080000000     0.070080000000     0          
C2956    C      0.250000000000     0.843100000000     0.093100000000     0          
C2957    C      0.250000000000     0.887430000000     0.137430000000     0          
C2958    C      0.250000000000     0.910230000000     0.160230000000     0          
C2959    C      0.250000000000     0.954470000000     0.204470000000     0          
C2960    C      0.250000000000     0.978160000000     0.228160000000     0          
C2961    C      0.250000000000     0.929920000000     0.679920000000     0          
C2962    C      0.250000000000     0.906900000000     0.656900000000     0          
C2963    C      0.250000000000     0.862570000000     0.612570000000     0          
C2964    C      0.250000000000     0.839770000000     0.589770000000     0          
C2965    C      0.250000000000     0.795530000000     0.545530000000     0          
C2966    C      0.250000000000     0.771840000000     0.521840000000     0          
C2967    C      0.250000000000     0.429920000000     0.179920000000     0          
C2968    C      0.250000000000     0.406900000000     0.156900000000     0          
C2969    C      0.250000000000     0.362570000000     0.112570000000     0          
C2970    C      0.250000000000     0.339770000000     0.089770000000     0          
C2971    C      0.250000000000     0.295530000000     0.045530000000     0          
C2972    C      0.250000000000     0.271840000000     0.021840000000     0          
C2973    C      0.750000000000     0.929920000000     0.179920000000     0          
C2974    C      0.750000000000     0.906900000000     0.156900000000     0          
C2975    C      0.750000000000     0.862570000000     0.112570000000     0          
C2976    C      0.750000000000     0.839770000000     0.089770000000     0          
C2977    C      0.750000000000     0.795530000000     0.045530000000     0          
C2978    C      0.750000000000     0.771840000000     0.021840000000     0          
C2979    C      0.750000000000     0.429920000000     0.679920000000     0          
C2980    C      0.750000000000     0.406900000000     0.656900000000     0          
C2981    C      0.750000000000     0.362570000000     0.612570000000     0          
C2982    C      0.750000000000     0.339770000000     0.589770000000     0          
C2983    C      0.750000000000     0.295530000000     0.545530000000     0          
C2984    C      0.750000000000     0.271840000000     0.521840000000     0          
C2985    C      0.000000000000     0.820080000000     0.179920000000     0          
C2986    C      0.000000000000     0.843100000000     0.156900000000     0          
C2987    C      0.000000000000     0.887430000000     0.112570000000     0          
C2988    C      0.000000000000     0.910230000000     0.089770000000     0          
C2989    C      0.000000000000     0.954470000000     0.045530000000     0          
C2990    C      0.000000000000     0.978160000000     0.021840000000     0          
C2991    C      0.000000000000     0.320080000000     0.679920000000     0          
C2992    C      0.000000000000     0.343100000000     0.656900000000     0          
C2993    C      0.000000000000     0.387430000000     0.612570000000     0          
C2994    C      0.000000000000     0.410230000000     0.589770000000     0          
C2995    C      0.000000000000     0.454470000000     0.545530000000     0          
C2996    C      0.000000000000     0.478160000000     0.521840000000     0          
C2997    C      0.500000000000     0.820080000000     0.679920000000     0          
C2998    C      0.500000000000     0.843100000000     0.656900000000     0          
C2999    C      0.500000000000     0.887430000000     0.612570000000     0          
C3000    C      0.500000000000     0.910230000000     0.589770000000     0          
C3001    C      0.500000000000     0.954470000000     0.545530000000     0          
C3002    C      0.500000000000     0.978160000000     0.521840000000     0          
C3003    C      0.500000000000     0.320080000000     0.179920000000     0          
C3004    C      0.500000000000     0.343100000000     0.156900000000     0          
C3005    C      0.500000000000     0.387430000000     0.112570000000     0          
C3006    C      0.500000000000     0.410230000000     0.089770000000     0          
C3007    C      0.500000000000     0.454470000000     0.045530000000     0          
C3008    C      0.500000000000     0.478160000000     0.021840000000     0          
C3009    C      0.570080000000     0.500000000000     0.429920000000     0          
C3010    C      0.593100000000     0.500000000000     0.406900000000     0          
C3011    C      0.637430000000     0.500000000000     0.362570000000     0          
C3012    C      0.660230000000     0.500000000000     0.339770000000     0          
C3013    C      0.704470000000     0.500000000000     0.295530000000     0          
C3014    C      0.728160000000     0.500000000000     0.271840000000     0          
C3015    C      0.570080000000     0.000000000000     0.929920000000     0          
C3016    C      0.593100000000     0.000000000000     0.906900000000     0          
C3017    C      0.637430000000     0.000000000000     0.862570000000     0          
C3018    C      0.660230000000     0.000000000000     0.839770000000     0          
C3019    C      0.704470000000     0.000000000000     0.795530000000     0          
C3020    C      0.728160000000     0.000000000000     0.771840000000     0          
C3021    C      0.070080000000     0.500000000000     0.929920000000     0          
C3022    C      0.093100000000     0.500000000000     0.906900000000     0          
C3023    C      0.137430000000     0.500000000000     0.862570000000     0          
C3024    C      0.160230000000     0.500000000000     0.839770000000     0          
C3025    C      0.204470000000     0.500000000000     0.795530000000     0          
C3026    C      0.228160000000     0.500000000000     0.771840000000     0          
C3027    C      0.070080000000     0.000000000000     0.429920000000     0          
C3028    C      0.093100000000     0.000000000000     0.406900000000     0          
C3029    C      0.137430000000     0.000000000000     0.362570000000     0          
C3030    C      0.160230000000     0.000000000000     0.339770000000     0          
C3031    C      0.204470000000     0.000000000000     0.295530000000     0          
C3032    C      0.228160000000     0.000000000000     0.271840000000     0          
C3033    C      0.070080000000     0.750000000000     0.320080000000     0          
C3034    C      0.093100000000     0.750000000000     0.343100000000     0          
C3035    C      0.137430000000     0.750000000000     0.387430000000     0          
C3036    C      0.160230000000     0.750000000000     0.410230000000     0          
C3037    C      0.204470000000     0.750000000000     0.454470000000     0          
C3038    C      0.228160000000     0.750000000000     0.478160000000     0          
C3039    C      0.070080000000     0.250000000000     0.820080000000     0          
C3040    C      0.093100000000     0.250000000000     0.843100000000     0          
C3041    C      0.137430000000     0.250000000000     0.887430000000     0          
C3042    C      0.160230000000     0.250000000000     0.910230000000     0          
C3043    C      0.204470000000     0.250000000000     0.954470000000     0          
C3044    C      0.228160000000     0.250000000000     0.978160000000     0          
C3045    C      0.570080000000     0.750000000000     0.820080000000     0          
C3046    C      0.593100000000     0.750000000000     0.843100000000     0          
C3047    C      0.637430000000     0.750000000000     0.887430000000     0          
C3048    C      0.660230000000     0.750000000000     0.910230000000     0          
C3049    C      0.704470000000     0.750000000000     0.954470000000     0          
C3050    C      0.728160000000     0.750000000000     0.978160000000     0          
C3051    C      0.570080000000     0.250000000000     0.320080000000     0          
C3052    C      0.593100000000     0.250000000000     0.343100000000     0          
C3053    C      0.637430000000     0.250000000000     0.387430000000     0          
C3054    C      0.660230000000     0.250000000000     0.410230000000     0          
C3055    C      0.704470000000     0.250000000000     0.454470000000     0          
C3056    C      0.728160000000     0.250000000000     0.478160000000     0          
C3057    C      0.679920000000     0.250000000000     0.929920000000     0          
C3058    C      0.656900000000     0.250000000000     0.906900000000     0          
C3059    C      0.612570000000     0.250000000000     0.862570000000     0          
C3060    C      0.589770000000     0.250000000000     0.839770000000     0          
C3061    C      0.545530000000     0.250000000000     0.795530000000     0          
C3062    C      0.521840000000     0.250000000000     0.771840000000     0          
C3063    C      0.679920000000     0.750000000000     0.429920000000     0          
C3064    C      0.656900000000     0.750000000000     0.406900000000     0          
C3065    C      0.612570000000     0.750000000000     0.362570000000     0          
C3066    C      0.589770000000     0.750000000000     0.339770000000     0          
C3067    C      0.545530000000     0.750000000000     0.295530000000     0          
C3068    C      0.521840000000     0.750000000000     0.271840000000     0          
C3069    C      0.179920000000     0.250000000000     0.429920000000     0          
C3070    C      0.156900000000     0.250000000000     0.406900000000     0          
C3071    C      0.112570000000     0.250000000000     0.362570000000     0          
C3072    C      0.089770000000     0.250000000000     0.339770000000     0          
C3073    C      0.045530000000     0.250000000000     0.295530000000     0          
C3074    C      0.021840000000     0.250000000000     0.271840000000     0          
C3075    C      0.179920000000     0.750000000000     0.929920000000     0          
C3076    C      0.156900000000     0.750000000000     0.906900000000     0          
C3077    C      0.112570000000     0.750000000000     0.862570000000     0          
C3078    C      0.089770000000     0.750000000000     0.839770000000     0          
C3079    C      0.045530000000     0.750000000000     0.795530000000     0          
C3080    C      0.021840000000     0.750000000000     0.771840000000     0          
C3081    C      0.179920000000     0.000000000000     0.820080000000     0          
C3082    C      0.156900000000     0.000000000000     0.843100000000     0          
C3083    C      0.112570000000     0.000000000000     0.887430000000     0          
C3084    C      0.089770000000     0.000000000000     0.910230000000     0          
C3085    C      0.045530000000     0.000000000000     0.954470000000     0          
C3086    C      0.021840000000     0.000000000000     0.978160000000     0          
C3087    C      0.179920000000     0.500000000000     0.320080000000     0          
C3088    C      0.156900000000     0.500000000000     0.343100000000     0          
C3089    C      0.112570000000     0.500000000000     0.387430000000     0          
C3090    C      0.089770000000     0.500000000000     0.410230000000     0          
C3091    C      0.045530000000     0.500000000000     0.454470000000     0          
C3092    C      0.021840000000     0.500000000000     0.478160000000     0          
C3093    C      0.679920000000     0.000000000000     0.320080000000     0          
C3094    C      0.656900000000     0.000000000000     0.343100000000     0          
C3095    C      0.612570000000     0.000000000000     0.387430000000     0          
C3096    C      0.589770000000     0.000000000000     0.410230000000     0          
C3097    C      0.545530000000     0.000000000000     0.454470000000     0          
C3098    C      0.521840000000     0.000000000000     0.478160000000     0          
C3099    C      0.679920000000     0.500000000000     0.820080000000     0          
C3100    C      0.656900000000     0.500000000000     0.843100000000     0          
C3101    C      0.612570000000     0.500000000000     0.887430000000     0          
C3102    C      0.589770000000     0.500000000000     0.910230000000     0          
C3103    C      0.545530000000     0.500000000000     0.954470000000     0          
C3104    C      0.521840000000     0.500000000000     0.978160000000     0          
C3105    C      0.429920000000     0.570080000000     0.500000000000     0          
C3106    C      0.406900000000     0.593100000000     0.500000000000     0          
C3107    C      0.362570000000     0.637430000000     0.500000000000     0          
C3108    C      0.339770000000     0.660230000000     0.500000000000     0          
C3109    C      0.295530000000     0.704470000000     0.500000000000     0          
C3110    C      0.271840000000     0.728160000000     0.500000000000     0          
C3111    C      0.429920000000     0.070080000000     0.000000000000     0          
C3112    C      0.406900000000     0.093100000000     0.000000000000     0          
C3113    C      0.362570000000     0.137430000000     0.000000000000     0          
C3114    C      0.339770000000     0.160230000000     0.000000000000     0          
C3115    C      0.295530000000     0.204470000000     0.000000000000     0          
C3116    C      0.271840000000     0.228160000000     0.000000000000     0          
C3117    C      0.929920000000     0.570080000000     0.000000000000     0          
C3118    C      0.906900000000     0.593100000000     0.000000000000     0          
C3119    C      0.862570000000     0.637430000000     0.000000000000     0          
C3120    C      0.839770000000     0.660230000000     0.000000000000     0          
C3121    C      0.795530000000     0.704470000000     0.000000000000     0          
C3122    C      0.771840000000     0.728160000000     0.000000000000     0          
C3123    C      0.929920000000     0.070080000000     0.500000000000     0          
C3124    C      0.906900000000     0.093100000000     0.500000000000     0          
C3125    C      0.862570000000     0.137430000000     0.500000000000     0          
C3126    C      0.839770000000     0.160230000000     0.500000000000     0          
C3127    C      0.795530000000     0.204470000000     0.500000000000     0          
C3128    C      0.771840000000     0.228160000000     0.500000000000     0          
C3129    C      0.320080000000     0.070080000000     0.750000000000     0          
C3130    C      0.343100000000     0.093100000000     0.750000000000     0          
C3131    C      0.387430000000     0.137430000000     0.750000000000     0          
C3132    C      0.410230000000     0.160230000000     0.750000000000     0          
C3133    C      0.454470000000     0.204470000000     0.750000000000     0          
C3134    C      0.478160000000     0.228160000000     0.750000000000     0          
C3135    C      0.320080000000     0.570080000000     0.250000000000     0          
C3136    C      0.343100000000     0.593100000000     0.250000000000     0          
C3137    C      0.387430000000     0.637430000000     0.250000000000     0          
C3138    C      0.410230000000     0.660230000000     0.250000000000     0          
C3139    C      0.454470000000     0.704470000000     0.250000000000     0          
C3140    C      0.478160000000     0.728160000000     0.250000000000     0          
C3141    C      0.820080000000     0.070080000000     0.250000000000     0          
C3142    C      0.843100000000     0.093100000000     0.250000000000     0          
C3143    C      0.887430000000     0.137430000000     0.250000000000     0          
C3144    C      0.910230000000     0.160230000000     0.250000000000     0          
C3145    C      0.954470000000     0.204470000000     0.250000000000     0          
C3146    C      0.978160000000     0.228160000000     0.250000000000     0          
C3147    C      0.820080000000     0.570080000000     0.750000000000     0          
C3148    C      0.843100000000     0.593100000000     0.750000000000     0          
C3149    C      0.887430000000     0.637430000000     0.750000000000     0          
C3150    C      0.910230000000     0.660230000000     0.750000000000     0          
C3151    C      0.954470000000     0.704470000000     0.750000000000     0          
C3152    C      0.978160000000     0.728160000000     0.750000000000     0          
C3153    C      0.929920000000     0.679920000000     0.250000000000     0          
C3154    C      0.906900000000     0.656900000000     0.250000000000     0          
C3155    C      0.862570000000     0.612570000000     0.250000000000     0          
C3156    C      0.839770000000     0.589770000000     0.250000000000     0          
C3157    C      0.795530000000     0.545530000000     0.250000000000     0          
C3158    C      0.771840000000     0.521840000000     0.250000000000     0          
C3159    C      0.929920000000     0.179920000000     0.750000000000     0          
C3160    C      0.906900000000     0.156900000000     0.750000000000     0          
C3161    C      0.862570000000     0.112570000000     0.750000000000     0          
C3162    C      0.839770000000     0.089770000000     0.750000000000     0          
C3163    C      0.795530000000     0.045530000000     0.750000000000     0          
C3164    C      0.771840000000     0.021840000000     0.750000000000     0          
C3165    C      0.429920000000     0.679920000000     0.750000000000     0          
C3166    C      0.406900000000     0.656900000000     0.750000000000     0          
C3167    C      0.362570000000     0.612570000000     0.750000000000     0          
C3168    C      0.339770000000     0.589770000000     0.750000000000     0          
C3169    C      0.295530000000     0.545530000000     0.750000000000     0          
C3170    C      0.271840000000     0.521840000000     0.750000000000     0          
C3171    C      0.429920000000     0.179920000000     0.250000000000     0          
C3172    C      0.406900000000     0.156900000000     0.250000000000     0          
C3173    C      0.362570000000     0.112570000000     0.250000000000     0          
C3174    C      0.339770000000     0.089770000000     0.250000000000     0          
C3175    C      0.295530000000     0.045530000000     0.250000000000     0          
C3176    C      0.271840000000     0.021840000000     0.250000000000     0          
C3177    C      0.820080000000     0.179920000000     0.000000000000     0          
C3178    C      0.843100000000     0.156900000000     0.000000000000     0          
C3179    C      0.887430000000     0.112570000000     0.000000000000     0          
C3180    C      0.910230000000     0.089770000000     0.000000000000     0          
C3181    C      0.954470000000     0.045530000000     0.000000000000     0          
C3182    C      0.978160000000     0.021840000000     0.000000000000     0          
C3183    C      0.820080000000     0.679920000000     0.500000000000     0          
C3184    C      0.843100000000     0.656900000000     0.500000000000     0          
C3185    C      0.887430000000     0.612570000000     0.500000000000     0          
C3186    C      0.910230000000     0.589770000000     0.500000000000     0          
C3187    C      0.954470000000     0.545530000000     0.500000000000     0          
C3188    C      0.978160000000     0.521840000000     0.500000000000     0          
C3189    C      0.320080000000     0.179920000000     0.500000000000     0          
C3190    C      0.343100000000     0.156900000000     0.500000000000     0          
C3191    C      0.387430000000     0.112570000000     0.500000000000     0          
C3192    C      0.410230000000     0.089770000000     0.500000000000     0          
C3193    C      0.454470000000     0.045530000000     0.500000000000     0          
C3194    C      0.478160000000     0.021840000000     0.500000000000     0          
C3195    C      0.320080000000     0.679920000000     0.000000000000     0          
C3196    C      0.343100000000     0.656900000000     0.000000000000     0          
C3197    C      0.387430000000     0.612570000000     0.000000000000     0          
C3198    C      0.410230000000     0.589770000000     0.000000000000     0          
C3199    C      0.454470000000     0.545530000000     0.000000000000     0          
C3200    C      0.478160000000     0.521840000000     0.000000000000     0          


