data_JAYDIZ

_audit_creation_method RASPA-1.0
_audit_creation_date 2020-11-2
_audit_author_name 'Rocio Bueno-Perez'

_cell_length_a    26.2758
_cell_length_b    26.2758
_cell_length_c    26.2758
_cell_angle_alpha 90
_cell_angle_beta  90
_cell_angle_gamma 90
_cell_volume      18141.3

_symmetry_cell_setting          cubic
_symmetry_space_group_name_Hall 'P 1'
_symmetry_space_group_name_H-M  'P 1'
_symmetry_Int_Tables_number     1

_symmetry_equiv_pos_as_xyz 'x,y,z'

loop_
_atom_site_label
_atom_site_type_symbol
_atom_site_fract_x
_atom_site_fract_y
_atom_site_fract_z
_atom_site_charge
Zr1      Zr     0.486140000000     0.092070000000     0.011520000000     0          
O1       O      0.406800000000     0.123200000000     0.005100000000     0          
O2       O      0.355600000000     0.054600000000     0.988800000000     0          
O3       O      0.122600000000     0.411400000000     0.971500000000     0          
O4       O      0.053800000000     0.357500000000     0.972400000000     0          
N1       N      0.290800000000     0.222100000000     0.986000000000     0          
N2       N      0.221600000000     0.291900000000     0.978900000000     0          
C1       C      0.364200000000     0.101200000000     0.992300000000     0          
C2       C      0.328000000000     0.188500000000     0.992000000000     0          
H1       H      0.360510000000     0.200340000000     0.002570000000     0          
C3       C      0.321600000000     0.136600000000     0.983400000000     0          
C4       C      0.275100000000     0.119900000000     0.968100000000     0          
H2       H      0.270840000000     0.085540000000     0.957710000000     0          
C5       C      0.232900000000     0.153500000000     0.967500000000     0          
H3       H      0.198840000000     0.141460000000     0.966000000000     0          
C6       C      0.244500000000     0.206300000000     0.969300000000     0          
C7       C      0.101300000000     0.368300000000     0.970000000000     0          
C8       C      0.187400000000     0.330200000000     0.978300000000     0          
H4       H      0.199080000000     0.363670000000     0.985210000000     0          
C9       C      0.136200000000     0.323100000000     0.968000000000     0          
C10      C      0.119500000000     0.273900000000     0.959100000000     0          
H5       H      0.084150000000     0.267300000000     0.955080000000     0          
C11      C      0.154500000000     0.233900000000     0.956100000000     0          
H6       H      0.144290000000     0.200780000000     0.945930000000     0          
C12      C      0.205500000000     0.244600000000     0.968700000000     0          
O5       O      0.449500000000     0.028400000000     0.040400000000     0          
Ni1      Ni     0.295700000000     0.296250000000     0.006100000000     0          
Br1      Br     0.300400000000     0.387820000000     0.026100000000     0          
Br2      Br     0.339100000000     0.304200000000     0.922900000000     0          
O7?      O      0.432900000000     0.038100000000     0.051500000000     0          
O6       O      0.448700000000     0.051300000000     0.948700000000     0          
O8?      O      0.460500000000     0.039500000000     0.960500000000     0          
Zr1      Zr     0.013860000000     0.907930000000     0.511520000000     0          
O1       O      0.093200000000     0.876800000000     0.505100000000     0          
O2       O      0.144400000000     0.945400000000     0.488800000000     0          
O3       O      0.377400000000     0.588600000000     0.471500000000     0          
O4       O      0.446200000000     0.642500000000     0.472400000000     0          
N1       N      0.209200000000     0.777900000000     0.486000000000     0          
N2       N      0.278400000000     0.708100000000     0.478900000000     0          
C1       C      0.135800000000     0.898800000000     0.492300000000     0          
C2       C      0.172000000000     0.811500000000     0.492000000000     0          
H1       H      0.139490000000     0.799660000000     0.502570000000     0          
C3       C      0.178400000000     0.863400000000     0.483400000000     0          
C4       C      0.224900000000     0.880100000000     0.468100000000     0          
H2       H      0.229160000000     0.914460000000     0.457710000000     0          
C5       C      0.267100000000     0.846500000000     0.467500000000     0          
H3       H      0.301160000000     0.858540000000     0.466000000000     0          
C6       C      0.255500000000     0.793700000000     0.469300000000     0          
C7       C      0.398700000000     0.631700000000     0.470000000000     0          
C8       C      0.312600000000     0.669800000000     0.478300000000     0          
H4       H      0.300920000000     0.636330000000     0.485210000000     0          
C9       C      0.363800000000     0.676900000000     0.468000000000     0          
C10      C      0.380500000000     0.726100000000     0.459100000000     0          
H5       H      0.415850000000     0.732700000000     0.455080000000     0          
C11      C      0.345500000000     0.766100000000     0.456100000000     0          
H6       H      0.355710000000     0.799220000000     0.445930000000     0          
C12      C      0.294500000000     0.755400000000     0.468700000000     0          
O5       O      0.050500000000     0.971600000000     0.540400000000     0          
Ni1      Ni     0.204300000000     0.703750000000     0.506100000000     0          
Br1      Br     0.199600000000     0.612180000000     0.526100000000     0          
Br2      Br     0.160900000000     0.695800000000     0.422900000000     0          
O7?      O      0.067100000000     0.961900000000     0.551500000000     0          
O6       O      0.051300000000     0.948700000000     0.448700000000     0          
O8?      O      0.039500000000     0.960500000000     0.460500000000     0          
Zr1      Zr     0.986140000000     0.407930000000     0.988480000000     0          
O1       O      0.906800000000     0.376800000000     0.994900000000     0          
O2       O      0.855600000000     0.445400000000     0.011200000000     0          
O3       O      0.622600000000     0.088600000000     0.028500000000     0          
O4       O      0.553800000000     0.142500000000     0.027600000000     0          
N1       N      0.790800000000     0.277900000000     0.014000000000     0          
N2       N      0.721600000000     0.208100000000     0.021100000000     0          
C1       C      0.864200000000     0.398800000000     0.007700000000     0          
C2       C      0.828000000000     0.311500000000     0.008000000000     0          
H1       H      0.860510000000     0.299660000000     0.997430000000     0          
C3       C      0.821600000000     0.363400000000     0.016600000000     0          
C4       C      0.775100000000     0.380100000000     0.031900000000     0          
H2       H      0.770840000000     0.414460000000     0.042290000000     0          
C5       C      0.732900000000     0.346500000000     0.032500000000     0          
H3       H      0.698840000000     0.358540000000     0.034000000000     0          
C6       C      0.744500000000     0.293700000000     0.030700000000     0          
C7       C      0.601300000000     0.131700000000     0.030000000000     0          
C8       C      0.687400000000     0.169800000000     0.021700000000     0          
H4       H      0.699080000000     0.136330000000     0.014790000000     0          
C9       C      0.636200000000     0.176900000000     0.032000000000     0          
C10      C      0.619500000000     0.226100000000     0.040900000000     0          
H5       H      0.584150000000     0.232700000000     0.044920000000     0          
C11      C      0.654500000000     0.266100000000     0.043900000000     0          
H6       H      0.644290000000     0.299220000000     0.054070000000     0          
C12      C      0.705500000000     0.255400000000     0.031300000000     0          
O5       O      0.949500000000     0.471600000000     0.959600000000     0          
Ni1      Ni     0.795700000000     0.203750000000     0.993900000000     0          
Br1      Br     0.800400000000     0.112180000000     0.973900000000     0          
Br2      Br     0.839100000000     0.195800000000     0.077100000000     0          
O7?      O      0.932900000000     0.461900000000     0.948500000000     0          
O6       O      0.948700000000     0.448700000000     0.051300000000     0          
O8?      O      0.960500000000     0.460500000000     0.039500000000     0          
Zr1      Zr     0.513860000000     0.592070000000     0.488480000000     0          
O1       O      0.593200000000     0.623200000000     0.494900000000     0          
O2       O      0.644400000000     0.554600000000     0.511200000000     0          
O3       O      0.877400000000     0.911400000000     0.528500000000     0          
O4       O      0.946200000000     0.857500000000     0.527600000000     0          
N1       N      0.709200000000     0.722100000000     0.514000000000     0          
N2       N      0.778400000000     0.791900000000     0.521100000000     0          
C1       C      0.635800000000     0.601200000000     0.507700000000     0          
C2       C      0.672000000000     0.688500000000     0.508000000000     0          
H1       H      0.639490000000     0.700340000000     0.497430000000     0          
C3       C      0.678400000000     0.636600000000     0.516600000000     0          
C4       C      0.724900000000     0.619900000000     0.531900000000     0          
H2       H      0.729160000000     0.585540000000     0.542290000000     0          
C5       C      0.767100000000     0.653500000000     0.532500000000     0          
H3       H      0.801160000000     0.641460000000     0.534000000000     0          
C6       C      0.755500000000     0.706300000000     0.530700000000     0          
C7       C      0.898700000000     0.868300000000     0.530000000000     0          
C8       C      0.812600000000     0.830200000000     0.521700000000     0          
H4       H      0.800920000000     0.863670000000     0.514790000000     0          
C9       C      0.863800000000     0.823100000000     0.532000000000     0          
C10      C      0.880500000000     0.773900000000     0.540900000000     0          
H5       H      0.915850000000     0.767300000000     0.544920000000     0          
C11      C      0.845500000000     0.733900000000     0.543900000000     0          
H6       H      0.855710000000     0.700780000000     0.554070000000     0          
C12      C      0.794500000000     0.744600000000     0.531300000000     0          
O5       O      0.550500000000     0.528400000000     0.459600000000     0          
Ni1      Ni     0.704300000000     0.796250000000     0.493900000000     0          
Br1      Br     0.699600000000     0.887820000000     0.473900000000     0          
Br2      Br     0.660900000000     0.804200000000     0.577100000000     0          
O7?      O      0.567100000000     0.538100000000     0.448500000000     0          
O6       O      0.551300000000     0.551300000000     0.551300000000     0          
O8?      O      0.539500000000     0.539500000000     0.539500000000     0          
Zr1      Zr     0.011520000000     0.486140000000     0.092070000000     0          
O1       O      0.005100000000     0.406800000000     0.123200000000     0          
O2       O      0.988800000000     0.355600000000     0.054600000000     0          
O3       O      0.971500000000     0.122600000000     0.411400000000     0          
O4       O      0.972400000000     0.053800000000     0.357500000000     0          
N1       N      0.986000000000     0.290800000000     0.222100000000     0          
N2       N      0.978900000000     0.221600000000     0.291900000000     0          
C1       C      0.992300000000     0.364200000000     0.101200000000     0          
C2       C      0.992000000000     0.328000000000     0.188500000000     0          
H1       H      0.002570000000     0.360510000000     0.200340000000     0          
C3       C      0.983400000000     0.321600000000     0.136600000000     0          
C4       C      0.968100000000     0.275100000000     0.119900000000     0          
H2       H      0.957710000000     0.270840000000     0.085540000000     0          
C5       C      0.967500000000     0.232900000000     0.153500000000     0          
H3       H      0.966000000000     0.198840000000     0.141460000000     0          
C6       C      0.969300000000     0.244500000000     0.206300000000     0          
C7       C      0.970000000000     0.101300000000     0.368300000000     0          
C8       C      0.978300000000     0.187400000000     0.330200000000     0          
H4       H      0.985210000000     0.199080000000     0.363670000000     0          
C9       C      0.968000000000     0.136200000000     0.323100000000     0          
C10      C      0.959100000000     0.119500000000     0.273900000000     0          
H5       H      0.955080000000     0.084150000000     0.267300000000     0          
C11      C      0.956100000000     0.154500000000     0.233900000000     0          
H6       H      0.945930000000     0.144290000000     0.200780000000     0          
C12      C      0.968700000000     0.205500000000     0.244600000000     0          
O5       O      0.040400000000     0.449500000000     0.028400000000     0          
Ni1      Ni     0.006100000000     0.295700000000     0.296250000000     0          
Br1      Br     0.026100000000     0.300400000000     0.387820000000     0          
Br2      Br     0.922900000000     0.339100000000     0.304200000000     0          
O7?      O      0.051500000000     0.432900000000     0.038100000000     0          
Zr1      Zr     0.488480000000     0.513860000000     0.592070000000     0          
O1       O      0.494900000000     0.593200000000     0.623200000000     0          
O2       O      0.511200000000     0.644400000000     0.554600000000     0          
O3       O      0.528500000000     0.877400000000     0.911400000000     0          
O4       O      0.527600000000     0.946200000000     0.857500000000     0          
N1       N      0.514000000000     0.709200000000     0.722100000000     0          
N2       N      0.521100000000     0.778400000000     0.791900000000     0          
C1       C      0.507700000000     0.635800000000     0.601200000000     0          
C2       C      0.508000000000     0.672000000000     0.688500000000     0          
H1       H      0.497430000000     0.639490000000     0.700340000000     0          
C3       C      0.516600000000     0.678400000000     0.636600000000     0          
C4       C      0.531900000000     0.724900000000     0.619900000000     0          
H2       H      0.542290000000     0.729160000000     0.585540000000     0          
C5       C      0.532500000000     0.767100000000     0.653500000000     0          
H3       H      0.534000000000     0.801160000000     0.641460000000     0          
C6       C      0.530700000000     0.755500000000     0.706300000000     0          
C7       C      0.530000000000     0.898700000000     0.868300000000     0          
C8       C      0.521700000000     0.812600000000     0.830200000000     0          
H4       H      0.514790000000     0.800920000000     0.863670000000     0          
C9       C      0.532000000000     0.863800000000     0.823100000000     0          
C10      C      0.540900000000     0.880500000000     0.773900000000     0          
H5       H      0.544920000000     0.915850000000     0.767300000000     0          
C11      C      0.543900000000     0.845500000000     0.733900000000     0          
H6       H      0.554070000000     0.855710000000     0.700780000000     0          
C12      C      0.531300000000     0.794500000000     0.744600000000     0          
O5       O      0.459600000000     0.550500000000     0.528400000000     0          
Ni1      Ni     0.493900000000     0.704300000000     0.796250000000     0          
Br1      Br     0.473900000000     0.699600000000     0.887820000000     0          
Br2      Br     0.577100000000     0.660900000000     0.804200000000     0          
O7?      O      0.448500000000     0.567100000000     0.538100000000     0          
Zr1      Zr     0.511520000000     0.013860000000     0.907930000000     0          
O1       O      0.505100000000     0.093200000000     0.876800000000     0          
O2       O      0.488800000000     0.144400000000     0.945400000000     0          
O3       O      0.471500000000     0.377400000000     0.588600000000     0          
O4       O      0.472400000000     0.446200000000     0.642500000000     0          
N1       N      0.486000000000     0.209200000000     0.777900000000     0          
N2       N      0.478900000000     0.278400000000     0.708100000000     0          
C1       C      0.492300000000     0.135800000000     0.898800000000     0          
C2       C      0.492000000000     0.172000000000     0.811500000000     0          
H1       H      0.502570000000     0.139490000000     0.799660000000     0          
C3       C      0.483400000000     0.178400000000     0.863400000000     0          
C4       C      0.468100000000     0.224900000000     0.880100000000     0          
H2       H      0.457710000000     0.229160000000     0.914460000000     0          
C5       C      0.467500000000     0.267100000000     0.846500000000     0          
H3       H      0.466000000000     0.301160000000     0.858540000000     0          
C6       C      0.469300000000     0.255500000000     0.793700000000     0          
C7       C      0.470000000000     0.398700000000     0.631700000000     0          
C8       C      0.478300000000     0.312600000000     0.669800000000     0          
H4       H      0.485210000000     0.300920000000     0.636330000000     0          
C9       C      0.468000000000     0.363800000000     0.676900000000     0          
C10      C      0.459100000000     0.380500000000     0.726100000000     0          
H5       H      0.455080000000     0.415850000000     0.732700000000     0          
C11      C      0.456100000000     0.345500000000     0.766100000000     0          
H6       H      0.445930000000     0.355710000000     0.799220000000     0          
C12      C      0.468700000000     0.294500000000     0.755400000000     0          
O5       O      0.540400000000     0.050500000000     0.971600000000     0          
Ni1      Ni     0.506100000000     0.204300000000     0.703750000000     0          
Br1      Br     0.526100000000     0.199600000000     0.612180000000     0          
Br2      Br     0.422900000000     0.160900000000     0.695800000000     0          
O7?      O      0.551500000000     0.067100000000     0.961900000000     0          
Zr1      Zr     0.988480000000     0.986140000000     0.407930000000     0          
O1       O      0.994900000000     0.906800000000     0.376800000000     0          
O2       O      0.011200000000     0.855600000000     0.445400000000     0          
O3       O      0.028500000000     0.622600000000     0.088600000000     0          
O4       O      0.027600000000     0.553800000000     0.142500000000     0          
N1       N      0.014000000000     0.790800000000     0.277900000000     0          
N2       N      0.021100000000     0.721600000000     0.208100000000     0          
C1       C      0.007700000000     0.864200000000     0.398800000000     0          
C2       C      0.008000000000     0.828000000000     0.311500000000     0          
H1       H      0.997430000000     0.860510000000     0.299660000000     0          
C3       C      0.016600000000     0.821600000000     0.363400000000     0          
C4       C      0.031900000000     0.775100000000     0.380100000000     0          
H2       H      0.042290000000     0.770840000000     0.414460000000     0          
C5       C      0.032500000000     0.732900000000     0.346500000000     0          
H3       H      0.034000000000     0.698840000000     0.358540000000     0          
C6       C      0.030700000000     0.744500000000     0.293700000000     0          
C7       C      0.030000000000     0.601300000000     0.131700000000     0          
C8       C      0.021700000000     0.687400000000     0.169800000000     0          
H4       H      0.014790000000     0.699080000000     0.136330000000     0          
C9       C      0.032000000000     0.636200000000     0.176900000000     0          
C10      C      0.040900000000     0.619500000000     0.226100000000     0          
H5       H      0.044920000000     0.584150000000     0.232700000000     0          
C11      C      0.043900000000     0.654500000000     0.266100000000     0          
H6       H      0.054070000000     0.644290000000     0.299220000000     0          
C12      C      0.031300000000     0.705500000000     0.255400000000     0          
O5       O      0.959600000000     0.949500000000     0.471600000000     0          
Ni1      Ni     0.993900000000     0.795700000000     0.203750000000     0          
Br1      Br     0.973900000000     0.800400000000     0.112180000000     0          
Br2      Br     0.077100000000     0.839100000000     0.195800000000     0          
O7?      O      0.948500000000     0.932900000000     0.461900000000     0          
Zr1      Zr     0.092070000000     0.011520000000     0.486140000000     0          
O1       O      0.123200000000     0.005100000000     0.406800000000     0          
O2       O      0.054600000000     0.988800000000     0.355600000000     0          
O3       O      0.411400000000     0.971500000000     0.122600000000     0          
O4       O      0.357500000000     0.972400000000     0.053800000000     0          
N1       N      0.222100000000     0.986000000000     0.290800000000     0          
N2       N      0.291900000000     0.978900000000     0.221600000000     0          
C1       C      0.101200000000     0.992300000000     0.364200000000     0          
C2       C      0.188500000000     0.992000000000     0.328000000000     0          
H1       H      0.200340000000     0.002570000000     0.360510000000     0          
C3       C      0.136600000000     0.983400000000     0.321600000000     0          
C4       C      0.119900000000     0.968100000000     0.275100000000     0          
H2       H      0.085540000000     0.957710000000     0.270840000000     0          
C5       C      0.153500000000     0.967500000000     0.232900000000     0          
H3       H      0.141460000000     0.966000000000     0.198840000000     0          
C6       C      0.206300000000     0.969300000000     0.244500000000     0          
C7       C      0.368300000000     0.970000000000     0.101300000000     0          
C8       C      0.330200000000     0.978300000000     0.187400000000     0          
H4       H      0.363670000000     0.985210000000     0.199080000000     0          
C9       C      0.323100000000     0.968000000000     0.136200000000     0          
C10      C      0.273900000000     0.959100000000     0.119500000000     0          
H5       H      0.267300000000     0.955080000000     0.084150000000     0          
C11      C      0.233900000000     0.956100000000     0.154500000000     0          
H6       H      0.200780000000     0.945930000000     0.144290000000     0          
C12      C      0.244600000000     0.968700000000     0.205500000000     0          
O5       O      0.028400000000     0.040400000000     0.449500000000     0          
Ni1      Ni     0.296250000000     0.006100000000     0.295700000000     0          
Br1      Br     0.387820000000     0.026100000000     0.300400000000     0          
Br2      Br     0.304200000000     0.922900000000     0.339100000000     0          
O7?      O      0.038100000000     0.051500000000     0.432900000000     0          
Zr1      Zr     0.592070000000     0.488480000000     0.513860000000     0          
O1       O      0.623200000000     0.494900000000     0.593200000000     0          
O2       O      0.554600000000     0.511200000000     0.644400000000     0          
O3       O      0.911400000000     0.528500000000     0.877400000000     0          
O4       O      0.857500000000     0.527600000000     0.946200000000     0          
N1       N      0.722100000000     0.514000000000     0.709200000000     0          
N2       N      0.791900000000     0.521100000000     0.778400000000     0          
C1       C      0.601200000000     0.507700000000     0.635800000000     0          
C2       C      0.688500000000     0.508000000000     0.672000000000     0          
H1       H      0.700340000000     0.497430000000     0.639490000000     0          
C3       C      0.636600000000     0.516600000000     0.678400000000     0          
C4       C      0.619900000000     0.531900000000     0.724900000000     0          
H2       H      0.585540000000     0.542290000000     0.729160000000     0          
C5       C      0.653500000000     0.532500000000     0.767100000000     0          
H3       H      0.641460000000     0.534000000000     0.801160000000     0          
C6       C      0.706300000000     0.530700000000     0.755500000000     0          
C7       C      0.868300000000     0.530000000000     0.898700000000     0          
C8       C      0.830200000000     0.521700000000     0.812600000000     0          
H4       H      0.863670000000     0.514790000000     0.800920000000     0          
C9       C      0.823100000000     0.532000000000     0.863800000000     0          
C10      C      0.773900000000     0.540900000000     0.880500000000     0          
H5       H      0.767300000000     0.544920000000     0.915850000000     0          
C11      C      0.733900000000     0.543900000000     0.845500000000     0          
H6       H      0.700780000000     0.554070000000     0.855710000000     0          
C12      C      0.744600000000     0.531300000000     0.794500000000     0          
O5       O      0.528400000000     0.459600000000     0.550500000000     0          
Ni1      Ni     0.796250000000     0.493900000000     0.704300000000     0          
Br1      Br     0.887820000000     0.473900000000     0.699600000000     0          
Br2      Br     0.804200000000     0.577100000000     0.660900000000     0          
O7?      O      0.538100000000     0.448500000000     0.567100000000     0          
Zr1      Zr     0.907930000000     0.511520000000     0.013860000000     0          
O1       O      0.876800000000     0.505100000000     0.093200000000     0          
O2       O      0.945400000000     0.488800000000     0.144400000000     0          
O3       O      0.588600000000     0.471500000000     0.377400000000     0          
O4       O      0.642500000000     0.472400000000     0.446200000000     0          
N1       N      0.777900000000     0.486000000000     0.209200000000     0          
N2       N      0.708100000000     0.478900000000     0.278400000000     0          
C1       C      0.898800000000     0.492300000000     0.135800000000     0          
C2       C      0.811500000000     0.492000000000     0.172000000000     0          
H1       H      0.799660000000     0.502570000000     0.139490000000     0          
C3       C      0.863400000000     0.483400000000     0.178400000000     0          
C4       C      0.880100000000     0.468100000000     0.224900000000     0          
H2       H      0.914460000000     0.457710000000     0.229160000000     0          
C5       C      0.846500000000     0.467500000000     0.267100000000     0          
H3       H      0.858540000000     0.466000000000     0.301160000000     0          
C6       C      0.793700000000     0.469300000000     0.255500000000     0          
C7       C      0.631700000000     0.470000000000     0.398700000000     0          
C8       C      0.669800000000     0.478300000000     0.312600000000     0          
H4       H      0.636330000000     0.485210000000     0.300920000000     0          
C9       C      0.676900000000     0.468000000000     0.363800000000     0          
C10      C      0.726100000000     0.459100000000     0.380500000000     0          
H5       H      0.732700000000     0.455080000000     0.415850000000     0          
C11      C      0.766100000000     0.456100000000     0.345500000000     0          
H6       H      0.799220000000     0.445930000000     0.355710000000     0          
C12      C      0.755400000000     0.468700000000     0.294500000000     0          
O5       O      0.971600000000     0.540400000000     0.050500000000     0          
Ni1      Ni     0.703750000000     0.506100000000     0.204300000000     0          
Br1      Br     0.612180000000     0.526100000000     0.199600000000     0          
Br2      Br     0.695800000000     0.422900000000     0.160900000000     0          
O7?      O      0.961900000000     0.551500000000     0.067100000000     0          
Zr1      Zr     0.407930000000     0.988480000000     0.986140000000     0          
O1       O      0.376800000000     0.994900000000     0.906800000000     0          
O2       O      0.445400000000     0.011200000000     0.855600000000     0          
O3       O      0.088600000000     0.028500000000     0.622600000000     0          
O4       O      0.142500000000     0.027600000000     0.553800000000     0          
N1       N      0.277900000000     0.014000000000     0.790800000000     0          
N2       N      0.208100000000     0.021100000000     0.721600000000     0          
C1       C      0.398800000000     0.007700000000     0.864200000000     0          
C2       C      0.311500000000     0.008000000000     0.828000000000     0          
H1       H      0.299660000000     0.997430000000     0.860510000000     0          
C3       C      0.363400000000     0.016600000000     0.821600000000     0          
C4       C      0.380100000000     0.031900000000     0.775100000000     0          
H2       H      0.414460000000     0.042290000000     0.770840000000     0          
C5       C      0.346500000000     0.032500000000     0.732900000000     0          
H3       H      0.358540000000     0.034000000000     0.698840000000     0          
C6       C      0.293700000000     0.030700000000     0.744500000000     0          
C7       C      0.131700000000     0.030000000000     0.601300000000     0          
C8       C      0.169800000000     0.021700000000     0.687400000000     0          
H4       H      0.136330000000     0.014790000000     0.699080000000     0          
C9       C      0.176900000000     0.032000000000     0.636200000000     0          
C10      C      0.226100000000     0.040900000000     0.619500000000     0          
H5       H      0.232700000000     0.044920000000     0.584150000000     0          
C11      C      0.266100000000     0.043900000000     0.654500000000     0          
H6       H      0.299220000000     0.054070000000     0.644290000000     0          
C12      C      0.255400000000     0.031300000000     0.705500000000     0          
O5       O      0.471600000000     0.959600000000     0.949500000000     0          
Ni1      Ni     0.203750000000     0.993900000000     0.795700000000     0          
Br1      Br     0.112180000000     0.973900000000     0.800400000000     0          
Br2      Br     0.195800000000     0.077100000000     0.839100000000     0          
O7?      O      0.461900000000     0.948500000000     0.932900000000     0          
Zr1      Zr     0.513860000000     0.907930000000     0.988480000000     0          
O1       O      0.593200000000     0.876800000000     0.994900000000     0          
O2       O      0.644400000000     0.945400000000     0.011200000000     0          
O3       O      0.877400000000     0.588600000000     0.028500000000     0          
O4       O      0.946200000000     0.642500000000     0.027600000000     0          
N1       N      0.709200000000     0.777900000000     0.014000000000     0          
N2       N      0.778400000000     0.708100000000     0.021100000000     0          
C1       C      0.635800000000     0.898800000000     0.007700000000     0          
C2       C      0.672000000000     0.811500000000     0.008000000000     0          
H1       H      0.639490000000     0.799660000000     0.997430000000     0          
C3       C      0.678400000000     0.863400000000     0.016600000000     0          
C4       C      0.724900000000     0.880100000000     0.031900000000     0          
H2       H      0.729160000000     0.914460000000     0.042290000000     0          
C5       C      0.767100000000     0.846500000000     0.032500000000     0          
H3       H      0.801160000000     0.858540000000     0.034000000000     0          
C6       C      0.755500000000     0.793700000000     0.030700000000     0          
C7       C      0.898700000000     0.631700000000     0.030000000000     0          
C8       C      0.812600000000     0.669800000000     0.021700000000     0          
H4       H      0.800920000000     0.636330000000     0.014790000000     0          
C9       C      0.863800000000     0.676900000000     0.032000000000     0          
C10      C      0.880500000000     0.726100000000     0.040900000000     0          
H5       H      0.915850000000     0.732700000000     0.044920000000     0          
C11      C      0.845500000000     0.766100000000     0.043900000000     0          
H6       H      0.855710000000     0.799220000000     0.054070000000     0          
C12      C      0.794500000000     0.755400000000     0.031300000000     0          
O5       O      0.550500000000     0.971600000000     0.959600000000     0          
Ni1      Ni     0.704300000000     0.703750000000     0.993900000000     0          
Br1      Br     0.699600000000     0.612180000000     0.973900000000     0          
Br2      Br     0.660900000000     0.695800000000     0.077100000000     0          
O7?      O      0.567100000000     0.961900000000     0.948500000000     0          
O6       O      0.551300000000     0.948700000000     0.051300000000     0          
O8?      O      0.539500000000     0.960500000000     0.039500000000     0          
Zr1      Zr     0.986140000000     0.092070000000     0.488480000000     0          
O1       O      0.906800000000     0.123200000000     0.494900000000     0          
O2       O      0.855600000000     0.054600000000     0.511200000000     0          
O3       O      0.622600000000     0.411400000000     0.528500000000     0          
O4       O      0.553800000000     0.357500000000     0.527600000000     0          
N1       N      0.790800000000     0.222100000000     0.514000000000     0          
N2       N      0.721600000000     0.291900000000     0.521100000000     0          
C1       C      0.864200000000     0.101200000000     0.507700000000     0          
C2       C      0.828000000000     0.188500000000     0.508000000000     0          
H1       H      0.860510000000     0.200340000000     0.497430000000     0          
C3       C      0.821600000000     0.136600000000     0.516600000000     0          
C4       C      0.775100000000     0.119900000000     0.531900000000     0          
H2       H      0.770840000000     0.085540000000     0.542290000000     0          
C5       C      0.732900000000     0.153500000000     0.532500000000     0          
H3       H      0.698840000000     0.141460000000     0.534000000000     0          
C6       C      0.744500000000     0.206300000000     0.530700000000     0          
C7       C      0.601300000000     0.368300000000     0.530000000000     0          
C8       C      0.687400000000     0.330200000000     0.521700000000     0          
H4       H      0.699080000000     0.363670000000     0.514790000000     0          
C9       C      0.636200000000     0.323100000000     0.532000000000     0          
C10      C      0.619500000000     0.273900000000     0.540900000000     0          
H5       H      0.584150000000     0.267300000000     0.544920000000     0          
C11      C      0.654500000000     0.233900000000     0.543900000000     0          
H6       H      0.644290000000     0.200780000000     0.554070000000     0          
C12      C      0.705500000000     0.244600000000     0.531300000000     0          
O5       O      0.949500000000     0.028400000000     0.459600000000     0          
Ni1      Ni     0.795700000000     0.296250000000     0.493900000000     0          
Br1      Br     0.800400000000     0.387820000000     0.473900000000     0          
Br2      Br     0.839100000000     0.304200000000     0.577100000000     0          
O7?      O      0.932900000000     0.038100000000     0.448500000000     0          
O6       O      0.948700000000     0.051300000000     0.551300000000     0          
O8?      O      0.960500000000     0.039500000000     0.539500000000     0          
Zr1      Zr     0.013860000000     0.592070000000     0.011520000000     0          
O1       O      0.093200000000     0.623200000000     0.005100000000     0          
O2       O      0.144400000000     0.554600000000     0.988800000000     0          
O3       O      0.377400000000     0.911400000000     0.971500000000     0          
O4       O      0.446200000000     0.857500000000     0.972400000000     0          
N1       N      0.209200000000     0.722100000000     0.986000000000     0          
N2       N      0.278400000000     0.791900000000     0.978900000000     0          
C1       C      0.135800000000     0.601200000000     0.992300000000     0          
C2       C      0.172000000000     0.688500000000     0.992000000000     0          
H1       H      0.139490000000     0.700340000000     0.002570000000     0          
C3       C      0.178400000000     0.636600000000     0.983400000000     0          
C4       C      0.224900000000     0.619900000000     0.968100000000     0          
H2       H      0.229160000000     0.585540000000     0.957710000000     0          
C5       C      0.267100000000     0.653500000000     0.967500000000     0          
H3       H      0.301160000000     0.641460000000     0.966000000000     0          
C6       C      0.255500000000     0.706300000000     0.969300000000     0          
C7       C      0.398700000000     0.868300000000     0.970000000000     0          
C8       C      0.312600000000     0.830200000000     0.978300000000     0          
H4       H      0.300920000000     0.863670000000     0.985210000000     0          
C9       C      0.363800000000     0.823100000000     0.968000000000     0          
C10      C      0.380500000000     0.773900000000     0.959100000000     0          
H5       H      0.415850000000     0.767300000000     0.955080000000     0          
C11      C      0.345500000000     0.733900000000     0.956100000000     0          
H6       H      0.355710000000     0.700780000000     0.945930000000     0          
C12      C      0.294500000000     0.744600000000     0.968700000000     0          
O5       O      0.050500000000     0.528400000000     0.040400000000     0          
Ni1      Ni     0.204300000000     0.796250000000     0.006100000000     0          
Br1      Br     0.199600000000     0.887820000000     0.026100000000     0          
Br2      Br     0.160900000000     0.804200000000     0.922900000000     0          
O7?      O      0.067100000000     0.538100000000     0.051500000000     0          
O6       O      0.051300000000     0.551300000000     0.948700000000     0          
O8?      O      0.039500000000     0.539500000000     0.960500000000     0          
Zr1      Zr     0.486140000000     0.407930000000     0.511520000000     0          
O1       O      0.406800000000     0.376800000000     0.505100000000     0          
O2       O      0.355600000000     0.445400000000     0.488800000000     0          
O3       O      0.122600000000     0.088600000000     0.471500000000     0          
O4       O      0.053800000000     0.142500000000     0.472400000000     0          
N1       N      0.290800000000     0.277900000000     0.486000000000     0          
N2       N      0.221600000000     0.208100000000     0.478900000000     0          
C1       C      0.364200000000     0.398800000000     0.492300000000     0          
C2       C      0.328000000000     0.311500000000     0.492000000000     0          
H1       H      0.360510000000     0.299660000000     0.502570000000     0          
C3       C      0.321600000000     0.363400000000     0.483400000000     0          
C4       C      0.275100000000     0.380100000000     0.468100000000     0          
H2       H      0.270840000000     0.414460000000     0.457710000000     0          
C5       C      0.232900000000     0.346500000000     0.467500000000     0          
H3       H      0.198840000000     0.358540000000     0.466000000000     0          
C6       C      0.244500000000     0.293700000000     0.469300000000     0          
C7       C      0.101300000000     0.131700000000     0.470000000000     0          
C8       C      0.187400000000     0.169800000000     0.478300000000     0          
H4       H      0.199080000000     0.136330000000     0.485210000000     0          
C9       C      0.136200000000     0.176900000000     0.468000000000     0          
C10      C      0.119500000000     0.226100000000     0.459100000000     0          
H5       H      0.084150000000     0.232700000000     0.455080000000     0          
C11      C      0.154500000000     0.266100000000     0.456100000000     0          
H6       H      0.144290000000     0.299220000000     0.445930000000     0          
C12      C      0.205500000000     0.255400000000     0.468700000000     0          
O5       O      0.449500000000     0.471600000000     0.540400000000     0          
Ni1      Ni     0.295700000000     0.203750000000     0.506100000000     0          
Br1      Br     0.300400000000     0.112180000000     0.526100000000     0          
Br2      Br     0.339100000000     0.195800000000     0.422900000000     0          
O7?      O      0.432900000000     0.461900000000     0.551500000000     0          
O6       O      0.448700000000     0.448700000000     0.448700000000     0          
O8?      O      0.460500000000     0.460500000000     0.460500000000     0          
Zr1      Zr     0.988480000000     0.513860000000     0.907930000000     0          
O1       O      0.994900000000     0.593200000000     0.876800000000     0          
O2       O      0.011200000000     0.644400000000     0.945400000000     0          
O3       O      0.028500000000     0.877400000000     0.588600000000     0          
O4       O      0.027600000000     0.946200000000     0.642500000000     0          
N1       N      0.014000000000     0.709200000000     0.777900000000     0          
N2       N      0.021100000000     0.778400000000     0.708100000000     0          
C1       C      0.007700000000     0.635800000000     0.898800000000     0          
C2       C      0.008000000000     0.672000000000     0.811500000000     0          
H1       H      0.997430000000     0.639490000000     0.799660000000     0          
C3       C      0.016600000000     0.678400000000     0.863400000000     0          
C4       C      0.031900000000     0.724900000000     0.880100000000     0          
H2       H      0.042290000000     0.729160000000     0.914460000000     0          
C5       C      0.032500000000     0.767100000000     0.846500000000     0          
H3       H      0.034000000000     0.801160000000     0.858540000000     0          
C6       C      0.030700000000     0.755500000000     0.793700000000     0          
C7       C      0.030000000000     0.898700000000     0.631700000000     0          
C8       C      0.021700000000     0.812600000000     0.669800000000     0          
H4       H      0.014790000000     0.800920000000     0.636330000000     0          
C9       C      0.032000000000     0.863800000000     0.676900000000     0          
C10      C      0.040900000000     0.880500000000     0.726100000000     0          
H5       H      0.044920000000     0.915850000000     0.732700000000     0          
C11      C      0.043900000000     0.845500000000     0.766100000000     0          
H6       H      0.054070000000     0.855710000000     0.799220000000     0          
C12      C      0.031300000000     0.794500000000     0.755400000000     0          
O5       O      0.959600000000     0.550500000000     0.971600000000     0          
Ni1      Ni     0.993900000000     0.704300000000     0.703750000000     0          
Br1      Br     0.973900000000     0.699600000000     0.612180000000     0          
Br2      Br     0.077100000000     0.660900000000     0.695800000000     0          
O7?      O      0.948500000000     0.567100000000     0.961900000000     0          
Zr1      Zr     0.511520000000     0.486140000000     0.407930000000     0          
O1       O      0.505100000000     0.406800000000     0.376800000000     0          
O2       O      0.488800000000     0.355600000000     0.445400000000     0          
O3       O      0.471500000000     0.122600000000     0.088600000000     0          
O4       O      0.472400000000     0.053800000000     0.142500000000     0          
N1       N      0.486000000000     0.290800000000     0.277900000000     0          
N2       N      0.478900000000     0.221600000000     0.208100000000     0          
C1       C      0.492300000000     0.364200000000     0.398800000000     0          
C2       C      0.492000000000     0.328000000000     0.311500000000     0          
H1       H      0.502570000000     0.360510000000     0.299660000000     0          
C3       C      0.483400000000     0.321600000000     0.363400000000     0          
C4       C      0.468100000000     0.275100000000     0.380100000000     0          
H2       H      0.457710000000     0.270840000000     0.414460000000     0          
C5       C      0.467500000000     0.232900000000     0.346500000000     0          
H3       H      0.466000000000     0.198840000000     0.358540000000     0          
C6       C      0.469300000000     0.244500000000     0.293700000000     0          
C7       C      0.470000000000     0.101300000000     0.131700000000     0          
C8       C      0.478300000000     0.187400000000     0.169800000000     0          
H4       H      0.485210000000     0.199080000000     0.136330000000     0          
C9       C      0.468000000000     0.136200000000     0.176900000000     0          
C10      C      0.459100000000     0.119500000000     0.226100000000     0          
H5       H      0.455080000000     0.084150000000     0.232700000000     0          
C11      C      0.456100000000     0.154500000000     0.266100000000     0          
H6       H      0.445930000000     0.144290000000     0.299220000000     0          
C12      C      0.468700000000     0.205500000000     0.255400000000     0          
O5       O      0.540400000000     0.449500000000     0.471600000000     0          
Ni1      Ni     0.506100000000     0.295700000000     0.203750000000     0          
Br1      Br     0.526100000000     0.300400000000     0.112180000000     0          
Br2      Br     0.422900000000     0.339100000000     0.195800000000     0          
O7?      O      0.551500000000     0.432900000000     0.461900000000     0          
Zr1      Zr     0.488480000000     0.986140000000     0.092070000000     0          
O1       O      0.494900000000     0.906800000000     0.123200000000     0          
O2       O      0.511200000000     0.855600000000     0.054600000000     0          
O3       O      0.528500000000     0.622600000000     0.411400000000     0          
O4       O      0.527600000000     0.553800000000     0.357500000000     0          
N1       N      0.514000000000     0.790800000000     0.222100000000     0          
N2       N      0.521100000000     0.721600000000     0.291900000000     0          
C1       C      0.507700000000     0.864200000000     0.101200000000     0          
C2       C      0.508000000000     0.828000000000     0.188500000000     0          
H1       H      0.497430000000     0.860510000000     0.200340000000     0          
C3       C      0.516600000000     0.821600000000     0.136600000000     0          
C4       C      0.531900000000     0.775100000000     0.119900000000     0          
H2       H      0.542290000000     0.770840000000     0.085540000000     0          
C5       C      0.532500000000     0.732900000000     0.153500000000     0          
H3       H      0.534000000000     0.698840000000     0.141460000000     0          
C6       C      0.530700000000     0.744500000000     0.206300000000     0          
C7       C      0.530000000000     0.601300000000     0.368300000000     0          
C8       C      0.521700000000     0.687400000000     0.330200000000     0          
H4       H      0.514790000000     0.699080000000     0.363670000000     0          
C9       C      0.532000000000     0.636200000000     0.323100000000     0          
C10      C      0.540900000000     0.619500000000     0.273900000000     0          
H5       H      0.544920000000     0.584150000000     0.267300000000     0          
C11      C      0.543900000000     0.654500000000     0.233900000000     0          
H6       H      0.554070000000     0.644290000000     0.200780000000     0          
C12      C      0.531300000000     0.705500000000     0.244600000000     0          
O5       O      0.459600000000     0.949500000000     0.028400000000     0          
Ni1      Ni     0.493900000000     0.795700000000     0.296250000000     0          
Br1      Br     0.473900000000     0.800400000000     0.387820000000     0          
Br2      Br     0.577100000000     0.839100000000     0.304200000000     0          
O7?      O      0.448500000000     0.932900000000     0.038100000000     0          
Zr1      Zr     0.011520000000     0.013860000000     0.592070000000     0          
O1       O      0.005100000000     0.093200000000     0.623200000000     0          
O2       O      0.988800000000     0.144400000000     0.554600000000     0          
O3       O      0.971500000000     0.377400000000     0.911400000000     0          
O4       O      0.972400000000     0.446200000000     0.857500000000     0          
N1       N      0.986000000000     0.209200000000     0.722100000000     0          
N2       N      0.978900000000     0.278400000000     0.791900000000     0          
C1       C      0.992300000000     0.135800000000     0.601200000000     0          
C2       C      0.992000000000     0.172000000000     0.688500000000     0          
H1       H      0.002570000000     0.139490000000     0.700340000000     0          
C3       C      0.983400000000     0.178400000000     0.636600000000     0          
C4       C      0.968100000000     0.224900000000     0.619900000000     0          
H2       H      0.957710000000     0.229160000000     0.585540000000     0          
C5       C      0.967500000000     0.267100000000     0.653500000000     0          
H3       H      0.966000000000     0.301160000000     0.641460000000     0          
C6       C      0.969300000000     0.255500000000     0.706300000000     0          
C7       C      0.970000000000     0.398700000000     0.868300000000     0          
C8       C      0.978300000000     0.312600000000     0.830200000000     0          
H4       H      0.985210000000     0.300920000000     0.863670000000     0          
C9       C      0.968000000000     0.363800000000     0.823100000000     0          
C10      C      0.959100000000     0.380500000000     0.773900000000     0          
H5       H      0.955080000000     0.415850000000     0.767300000000     0          
C11      C      0.956100000000     0.345500000000     0.733900000000     0          
H6       H      0.945930000000     0.355710000000     0.700780000000     0          
C12      C      0.968700000000     0.294500000000     0.744600000000     0          
O5       O      0.040400000000     0.050500000000     0.528400000000     0          
Ni1      Ni     0.006100000000     0.204300000000     0.796250000000     0          
Br1      Br     0.026100000000     0.199600000000     0.887820000000     0          
Br2      Br     0.922900000000     0.160900000000     0.804200000000     0          
O7?      O      0.051500000000     0.067100000000     0.538100000000     0          
Zr1      Zr     0.907930000000     0.988480000000     0.513860000000     0          
O1       O      0.876800000000     0.994900000000     0.593200000000     0          
O2       O      0.945400000000     0.011200000000     0.644400000000     0          
O3       O      0.588600000000     0.028500000000     0.877400000000     0          
O4       O      0.642500000000     0.027600000000     0.946200000000     0          
N1       N      0.777900000000     0.014000000000     0.709200000000     0          
N2       N      0.708100000000     0.021100000000     0.778400000000     0          
C1       C      0.898800000000     0.007700000000     0.635800000000     0          
C2       C      0.811500000000     0.008000000000     0.672000000000     0          
H1       H      0.799660000000     0.997430000000     0.639490000000     0          
C3       C      0.863400000000     0.016600000000     0.678400000000     0          
C4       C      0.880100000000     0.031900000000     0.724900000000     0          
H2       H      0.914460000000     0.042290000000     0.729160000000     0          
C5       C      0.846500000000     0.032500000000     0.767100000000     0          
H3       H      0.858540000000     0.034000000000     0.801160000000     0          
C6       C      0.793700000000     0.030700000000     0.755500000000     0          
C7       C      0.631700000000     0.030000000000     0.898700000000     0          
C8       C      0.669800000000     0.021700000000     0.812600000000     0          
H4       H      0.636330000000     0.014790000000     0.800920000000     0          
C9       C      0.676900000000     0.032000000000     0.863800000000     0          
C10      C      0.726100000000     0.040900000000     0.880500000000     0          
H5       H      0.732700000000     0.044920000000     0.915850000000     0          
C11      C      0.766100000000     0.043900000000     0.845500000000     0          
H6       H      0.799220000000     0.054070000000     0.855710000000     0          
C12      C      0.755400000000     0.031300000000     0.794500000000     0          
O5       O      0.971600000000     0.959600000000     0.550500000000     0          
Ni1      Ni     0.703750000000     0.993900000000     0.704300000000     0          
Br1      Br     0.612180000000     0.973900000000     0.699600000000     0          
Br2      Br     0.695800000000     0.077100000000     0.660900000000     0          
O7?      O      0.961900000000     0.948500000000     0.567100000000     0          
Zr1      Zr     0.407930000000     0.511520000000     0.486140000000     0          
O1       O      0.376800000000     0.505100000000     0.406800000000     0          
O2       O      0.445400000000     0.488800000000     0.355600000000     0          
O3       O      0.088600000000     0.471500000000     0.122600000000     0          
O4       O      0.142500000000     0.472400000000     0.053800000000     0          
N1       N      0.277900000000     0.486000000000     0.290800000000     0          
N2       N      0.208100000000     0.478900000000     0.221600000000     0          
C1       C      0.398800000000     0.492300000000     0.364200000000     0          
C2       C      0.311500000000     0.492000000000     0.328000000000     0          
H1       H      0.299660000000     0.502570000000     0.360510000000     0          
C3       C      0.363400000000     0.483400000000     0.321600000000     0          
C4       C      0.380100000000     0.468100000000     0.275100000000     0          
H2       H      0.414460000000     0.457710000000     0.270840000000     0          
C5       C      0.346500000000     0.467500000000     0.232900000000     0          
H3       H      0.358540000000     0.466000000000     0.198840000000     0          
C6       C      0.293700000000     0.469300000000     0.244500000000     0          
C7       C      0.131700000000     0.470000000000     0.101300000000     0          
C8       C      0.169800000000     0.478300000000     0.187400000000     0          
H4       H      0.136330000000     0.485210000000     0.199080000000     0          
C9       C      0.176900000000     0.468000000000     0.136200000000     0          
C10      C      0.226100000000     0.459100000000     0.119500000000     0          
H5       H      0.232700000000     0.455080000000     0.084150000000     0          
C11      C      0.266100000000     0.456100000000     0.154500000000     0          
H6       H      0.299220000000     0.445930000000     0.144290000000     0          
C12      C      0.255400000000     0.468700000000     0.205500000000     0          
O5       O      0.471600000000     0.540400000000     0.449500000000     0          
Ni1      Ni     0.203750000000     0.506100000000     0.295700000000     0          
Br1      Br     0.112180000000     0.526100000000     0.300400000000     0          
Br2      Br     0.195800000000     0.422900000000     0.339100000000     0          
O7?      O      0.461900000000     0.551500000000     0.432900000000     0          
Zr1      Zr     0.092070000000     0.488480000000     0.986140000000     0          
O1       O      0.123200000000     0.494900000000     0.906800000000     0          
O2       O      0.054600000000     0.511200000000     0.855600000000     0          
O3       O      0.411400000000     0.528500000000     0.622600000000     0          
O4       O      0.357500000000     0.527600000000     0.553800000000     0          
N1       N      0.222100000000     0.514000000000     0.790800000000     0          
N2       N      0.291900000000     0.521100000000     0.721600000000     0          
C1       C      0.101200000000     0.507700000000     0.864200000000     0          
C2       C      0.188500000000     0.508000000000     0.828000000000     0          
H1       H      0.200340000000     0.497430000000     0.860510000000     0          
C3       C      0.136600000000     0.516600000000     0.821600000000     0          
C4       C      0.119900000000     0.531900000000     0.775100000000     0          
H2       H      0.085540000000     0.542290000000     0.770840000000     0          
C5       C      0.153500000000     0.532500000000     0.732900000000     0          
H3       H      0.141460000000     0.534000000000     0.698840000000     0          
C6       C      0.206300000000     0.530700000000     0.744500000000     0          
C7       C      0.368300000000     0.530000000000     0.601300000000     0          
C8       C      0.330200000000     0.521700000000     0.687400000000     0          
H4       H      0.363670000000     0.514790000000     0.699080000000     0          
C9       C      0.323100000000     0.532000000000     0.636200000000     0          
C10      C      0.273900000000     0.540900000000     0.619500000000     0          
H5       H      0.267300000000     0.544920000000     0.584150000000     0          
C11      C      0.233900000000     0.543900000000     0.654500000000     0          
H6       H      0.200780000000     0.554070000000     0.644290000000     0          
C12      C      0.244600000000     0.531300000000     0.705500000000     0          
O5       O      0.028400000000     0.459600000000     0.949500000000     0          
Ni1      Ni     0.296250000000     0.493900000000     0.795700000000     0          
Br1      Br     0.387820000000     0.473900000000     0.800400000000     0          
Br2      Br     0.304200000000     0.577100000000     0.839100000000     0          
O7?      O      0.038100000000     0.448500000000     0.932900000000     0          
Zr1      Zr     0.592070000000     0.011520000000     0.013860000000     0          
O1       O      0.623200000000     0.005100000000     0.093200000000     0          
O2       O      0.554600000000     0.988800000000     0.144400000000     0          
O3       O      0.911400000000     0.971500000000     0.377400000000     0          
O4       O      0.857500000000     0.972400000000     0.446200000000     0          
N1       N      0.722100000000     0.986000000000     0.209200000000     0          
N2       N      0.791900000000     0.978900000000     0.278400000000     0          
C1       C      0.601200000000     0.992300000000     0.135800000000     0          
C2       C      0.688500000000     0.992000000000     0.172000000000     0          
H1       H      0.700340000000     0.002570000000     0.139490000000     0          
C3       C      0.636600000000     0.983400000000     0.178400000000     0          
C4       C      0.619900000000     0.968100000000     0.224900000000     0          
H2       H      0.585540000000     0.957710000000     0.229160000000     0          
C5       C      0.653500000000     0.967500000000     0.267100000000     0          
H3       H      0.641460000000     0.966000000000     0.301160000000     0          
C6       C      0.706300000000     0.969300000000     0.255500000000     0          
C7       C      0.868300000000     0.970000000000     0.398700000000     0          
C8       C      0.830200000000     0.978300000000     0.312600000000     0          
H4       H      0.863670000000     0.985210000000     0.300920000000     0          
C9       C      0.823100000000     0.968000000000     0.363800000000     0          
C10      C      0.773900000000     0.959100000000     0.380500000000     0          
H5       H      0.767300000000     0.955080000000     0.415850000000     0          
C11      C      0.733900000000     0.956100000000     0.345500000000     0          
H6       H      0.700780000000     0.945930000000     0.355710000000     0          
C12      C      0.744600000000     0.968700000000     0.294500000000     0          
O5       O      0.528400000000     0.040400000000     0.050500000000     0          
Ni1      Ni     0.796250000000     0.006100000000     0.204300000000     0          
Br1      Br     0.887820000000     0.026100000000     0.199600000000     0          
Br2      Br     0.804200000000     0.922900000000     0.160900000000     0          
O7?      O      0.538100000000     0.051500000000     0.067100000000     0          


