data_JETKIF

_audit_creation_method RASPA-1.0
_audit_creation_date 2020-11-2
_audit_author_name 'Rocio Bueno-Perez'

_cell_length_a    38.4062
_cell_length_b    38.4062
_cell_length_c    38.4062
_cell_angle_alpha 90
_cell_angle_beta  90
_cell_angle_gamma 90
_cell_volume      56650.5

_symmetry_cell_setting          triclinic
_symmetry_space_group_name_Hall 'P 1'
_symmetry_space_group_name_H-M  'P 1'
_symmetry_Int_Tables_number     1

_symmetry_equiv_pos_as_xyz 'x,y,z'

loop_
_atom_site_label
_atom_site_type_symbol
_atom_site_fract_x
_atom_site_fract_y
_atom_site_fract_z
_atom_site_charge
O1       O      0.685480000000     0.827870000000     0.221360000000     0          
C2       C      0.623690000000     0.866130000000     0.280640000000     0          
H3       H      0.628600000000     0.853600000000     0.301400000000     0          
C4       C      0.598620000000     0.892240000000     0.280680000000     0          
H5       H      0.587100000000     0.898300000000     0.301700000000     0          
C6       C      0.574080000000     0.971390000000     0.251690000000     0          
C7       C      0.609330000000     0.982160000000     0.252600000000     0          
H8       H      0.629200000000     0.967400000000     0.253200000000     0          
O9       O      0.185480000000     0.327870000000     0.721360000000     0          
C10      C      0.123690000000     0.366130000000     0.780640000000     0          
H11      H      0.128600000000     0.353600000000     0.801400000000     0          
C12      C      0.098620000000     0.392240000000     0.780680000000     0          
H13      H      0.087100000000     0.398300000000     0.801700000000     0          
C14      C      0.074080000000     0.471390000000     0.751690000000     0          
C15      C      0.109330000000     0.482160000000     0.752600000000     0          
H16      H      0.129200000000     0.467400000000     0.753200000000     0          
O17      O      0.314520000000     0.172130000000     0.221360000000     0          
C18      C      0.376310000000     0.133870000000     0.280640000000     0          
H19      H      0.371400000000     0.146400000000     0.301400000000     0          
C20      C      0.401380000000     0.107760000000     0.280680000000     0          
H21      H      0.412900000000     0.101700000000     0.301700000000     0          
C22      C      0.425920000000     0.028610000000     0.251690000000     0          
C23      C      0.390670000000     0.017840000000     0.252600000000     0          
H24      H      0.370800000000     0.032600000000     0.253200000000     0          
O25      O      0.814520000000     0.672130000000     0.721360000000     0          
C26      C      0.876310000000     0.633870000000     0.780640000000     0          
H27      H      0.871400000000     0.646400000000     0.801400000000     0          
C28      C      0.901380000000     0.607760000000     0.780680000000     0          
H29      H      0.912900000000     0.601700000000     0.801700000000     0          
C30      C      0.925920000000     0.528610000000     0.751690000000     0          
C31      C      0.890670000000     0.517840000000     0.752600000000     0          
H32      H      0.870800000000     0.532600000000     0.753200000000     0          
O33      O      0.314520000000     0.827870000000     0.778640000000     0          
C34      C      0.376310000000     0.866130000000     0.719360000000     0          
H35      H      0.371400000000     0.853600000000     0.698600000000     0          
C36      C      0.401380000000     0.892240000000     0.719320000000     0          
H37      H      0.412900000000     0.898300000000     0.698300000000     0          
C38      C      0.425920000000     0.971390000000     0.748310000000     0          
C39      C      0.390670000000     0.982160000000     0.747400000000     0          
H40      H      0.370800000000     0.967400000000     0.746800000000     0          
O41      O      0.814520000000     0.327870000000     0.278640000000     0          
C42      C      0.876310000000     0.366130000000     0.219360000000     0          
H43      H      0.871400000000     0.353600000000     0.198600000000     0          
C44      C      0.901380000000     0.392240000000     0.219320000000     0          
H45      H      0.912900000000     0.398300000000     0.198300000000     0          
C46      C      0.925920000000     0.471390000000     0.248310000000     0          
C47      C      0.890670000000     0.482160000000     0.247400000000     0          
H48      H      0.870800000000     0.467400000000     0.246800000000     0          
O49      O      0.685480000000     0.172130000000     0.778640000000     0          
C50      C      0.623690000000     0.133870000000     0.719360000000     0          
H51      H      0.628600000000     0.146400000000     0.698600000000     0          
C52      C      0.598620000000     0.107760000000     0.719320000000     0          
H53      H      0.587100000000     0.101700000000     0.698300000000     0          
C54      C      0.574080000000     0.028610000000     0.748310000000     0          
C55      C      0.609330000000     0.017840000000     0.747400000000     0          
H56      H      0.629200000000     0.032600000000     0.746800000000     0          
O57      O      0.185480000000     0.672130000000     0.278640000000     0          
C58      C      0.123690000000     0.633870000000     0.219360000000     0          
H59      H      0.128600000000     0.646400000000     0.198600000000     0          
C60      C      0.098620000000     0.607760000000     0.219320000000     0          
H61      H      0.087100000000     0.601700000000     0.198300000000     0          
C62      C      0.074080000000     0.528610000000     0.248310000000     0          
C63      C      0.109330000000     0.517840000000     0.247400000000     0          
H64      H      0.129200000000     0.532600000000     0.246800000000     0          
O65      O      0.221360000000     0.685480000000     0.827870000000     0          
C66      C      0.280640000000     0.623690000000     0.866130000000     0          
H67      H      0.301400000000     0.628600000000     0.853600000000     0          
C68      C      0.280680000000     0.598620000000     0.892240000000     0          
H69      H      0.301700000000     0.587100000000     0.898300000000     0          
C70      C      0.251690000000     0.574080000000     0.971390000000     0          
C71      C      0.252600000000     0.609330000000     0.982160000000     0          
H72      H      0.253200000000     0.629200000000     0.967400000000     0          
O73      O      0.721360000000     0.185480000000     0.327870000000     0          
C74      C      0.780640000000     0.123690000000     0.366130000000     0          
H75      H      0.801400000000     0.128600000000     0.353600000000     0          
C76      C      0.780680000000     0.098620000000     0.392240000000     0          
H77      H      0.801700000000     0.087100000000     0.398300000000     0          
C78      C      0.751690000000     0.074080000000     0.471390000000     0          
C79      C      0.752600000000     0.109330000000     0.482160000000     0          
H80      H      0.753200000000     0.129200000000     0.467400000000     0          
O81      O      0.221360000000     0.314520000000     0.172130000000     0          
C82      C      0.280640000000     0.376310000000     0.133870000000     0          
H83      H      0.301400000000     0.371400000000     0.146400000000     0          
C84      C      0.280680000000     0.401380000000     0.107760000000     0          
H85      H      0.301700000000     0.412900000000     0.101700000000     0          
C86      C      0.251690000000     0.425920000000     0.028610000000     0          
C87      C      0.252600000000     0.390670000000     0.017840000000     0          
H88      H      0.253200000000     0.370800000000     0.032600000000     0          
O89      O      0.721360000000     0.814520000000     0.672130000000     0          
C90      C      0.780640000000     0.876310000000     0.633870000000     0          
H91      H      0.801400000000     0.871400000000     0.646400000000     0          
C92      C      0.780680000000     0.901380000000     0.607760000000     0          
H93      H      0.801700000000     0.912900000000     0.601700000000     0          
C94      C      0.751690000000     0.925920000000     0.528610000000     0          
C95      C      0.752600000000     0.890670000000     0.517840000000     0          
H96      H      0.753200000000     0.870800000000     0.532600000000     0          
O97      O      0.778640000000     0.314520000000     0.827870000000     0          
C98      C      0.719360000000     0.376310000000     0.866130000000     0          
H99      H      0.698600000000     0.371400000000     0.853600000000     0          
C100     C      0.719320000000     0.401380000000     0.892240000000     0          
H101     H      0.698300000000     0.412900000000     0.898300000000     0          
C102     C      0.748310000000     0.425920000000     0.971390000000     0          
C103     C      0.747400000000     0.390670000000     0.982160000000     0          
H104     H      0.746800000000     0.370800000000     0.967400000000     0          
O105     O      0.278640000000     0.814520000000     0.327870000000     0          
C106     C      0.219360000000     0.876310000000     0.366130000000     0          
H107     H      0.198600000000     0.871400000000     0.353600000000     0          
C108     C      0.219320000000     0.901380000000     0.392240000000     0          
H109     H      0.198300000000     0.912900000000     0.398300000000     0          
C110     C      0.248310000000     0.925920000000     0.471390000000     0          
C111     C      0.247400000000     0.890670000000     0.482160000000     0          
H112     H      0.246800000000     0.870800000000     0.467400000000     0          
O113     O      0.778640000000     0.685480000000     0.172130000000     0          
C114     C      0.719360000000     0.623690000000     0.133870000000     0          
H115     H      0.698600000000     0.628600000000     0.146400000000     0          
C116     C      0.719320000000     0.598620000000     0.107760000000     0          
H117     H      0.698300000000     0.587100000000     0.101700000000     0          
C118     C      0.748310000000     0.574080000000     0.028610000000     0          
C119     C      0.747400000000     0.609330000000     0.017840000000     0          
H120     H      0.746800000000     0.629200000000     0.032600000000     0          
O121     O      0.278640000000     0.185480000000     0.672130000000     0          
C122     C      0.219360000000     0.123690000000     0.633870000000     0          
H123     H      0.198600000000     0.128600000000     0.646400000000     0          
C124     C      0.219320000000     0.098620000000     0.607760000000     0          
H125     H      0.198300000000     0.087100000000     0.601700000000     0          
C126     C      0.248310000000     0.074080000000     0.528610000000     0          
C127     C      0.247400000000     0.109330000000     0.517840000000     0          
H128     H      0.246800000000     0.129200000000     0.532600000000     0          
O129     O      0.827870000000     0.221360000000     0.685480000000     0          
C130     C      0.866130000000     0.280640000000     0.623690000000     0          
H131     H      0.853600000000     0.301400000000     0.628600000000     0          
C132     C      0.892240000000     0.280680000000     0.598620000000     0          
H133     H      0.898300000000     0.301700000000     0.587100000000     0          
C134     C      0.971390000000     0.251690000000     0.574080000000     0          
C135     C      0.982160000000     0.252600000000     0.609330000000     0          
H136     H      0.967400000000     0.253200000000     0.629200000000     0          
O137     O      0.327870000000     0.721360000000     0.185480000000     0          
C138     C      0.366130000000     0.780640000000     0.123690000000     0          
H139     H      0.353600000000     0.801400000000     0.128600000000     0          
C140     C      0.392240000000     0.780680000000     0.098620000000     0          
H141     H      0.398300000000     0.801700000000     0.087100000000     0          
C142     C      0.471390000000     0.751690000000     0.074080000000     0          
C143     C      0.482160000000     0.752600000000     0.109330000000     0          
H144     H      0.467400000000     0.753200000000     0.129200000000     0          
O145     O      0.172130000000     0.221360000000     0.314520000000     0          
C146     C      0.133870000000     0.280640000000     0.376310000000     0          
H147     H      0.146400000000     0.301400000000     0.371400000000     0          
C148     C      0.107760000000     0.280680000000     0.401380000000     0          
H149     H      0.101700000000     0.301700000000     0.412900000000     0          
C150     C      0.028610000000     0.251690000000     0.425920000000     0          
C151     C      0.017840000000     0.252600000000     0.390670000000     0          
H152     H      0.032600000000     0.253200000000     0.370800000000     0          
O153     O      0.672130000000     0.721360000000     0.814520000000     0          
C154     C      0.633870000000     0.780640000000     0.876310000000     0          
H155     H      0.646400000000     0.801400000000     0.871400000000     0          
C156     C      0.607760000000     0.780680000000     0.901380000000     0          
H157     H      0.601700000000     0.801700000000     0.912900000000     0          
C158     C      0.528610000000     0.751690000000     0.925920000000     0          
C159     C      0.517840000000     0.752600000000     0.890670000000     0          
H160     H      0.532600000000     0.753200000000     0.870800000000     0          
O161     O      0.827870000000     0.778640000000     0.314520000000     0          
C162     C      0.866130000000     0.719360000000     0.376310000000     0          
H163     H      0.853600000000     0.698600000000     0.371400000000     0          
C164     C      0.892240000000     0.719320000000     0.401380000000     0          
H165     H      0.898300000000     0.698300000000     0.412900000000     0          
C166     C      0.971390000000     0.748310000000     0.425920000000     0          
C167     C      0.982160000000     0.747400000000     0.390670000000     0          
H168     H      0.967400000000     0.746800000000     0.370800000000     0          
O169     O      0.327870000000     0.278640000000     0.814520000000     0          
C170     C      0.366130000000     0.219360000000     0.876310000000     0          
H171     H      0.353600000000     0.198600000000     0.871400000000     0          
C172     C      0.392240000000     0.219320000000     0.901380000000     0          
H173     H      0.398300000000     0.198300000000     0.912900000000     0          
C174     C      0.471390000000     0.248310000000     0.925920000000     0          
C175     C      0.482160000000     0.247400000000     0.890670000000     0          
H176     H      0.467400000000     0.246800000000     0.870800000000     0          
O177     O      0.172130000000     0.778640000000     0.685480000000     0          
C178     C      0.133870000000     0.719360000000     0.623690000000     0          
H179     H      0.146400000000     0.698600000000     0.628600000000     0          
C180     C      0.107760000000     0.719320000000     0.598620000000     0          
H181     H      0.101700000000     0.698300000000     0.587100000000     0          
C182     C      0.028610000000     0.748310000000     0.574080000000     0          
C183     C      0.017840000000     0.747400000000     0.609330000000     0          
H184     H      0.032600000000     0.746800000000     0.629200000000     0          
O185     O      0.672130000000     0.278640000000     0.185480000000     0          
C186     C      0.633870000000     0.219360000000     0.123690000000     0          
H187     H      0.646400000000     0.198600000000     0.128600000000     0          
C188     C      0.607760000000     0.219320000000     0.098620000000     0          
H189     H      0.601700000000     0.198300000000     0.087100000000     0          
C190     C      0.528610000000     0.248310000000     0.074080000000     0          
C191     C      0.517840000000     0.247400000000     0.109330000000     0          
H192     H      0.532600000000     0.246800000000     0.129200000000     0          
O193     O      0.827870000000     0.685480000000     0.778640000000     0          
C194     C      0.866130000000     0.623690000000     0.719360000000     0          
H195     H      0.853600000000     0.628600000000     0.698600000000     0          
C196     C      0.892240000000     0.598620000000     0.719320000000     0          
H197     H      0.898300000000     0.587100000000     0.698300000000     0          
C198     C      0.971390000000     0.574080000000     0.748310000000     0          
C199     C      0.982160000000     0.609330000000     0.747400000000     0          
H200     H      0.967400000000     0.629200000000     0.746800000000     0          
O201     O      0.327870000000     0.185480000000     0.278640000000     0          
C202     C      0.366130000000     0.123690000000     0.219360000000     0          
H203     H      0.353600000000     0.128600000000     0.198600000000     0          
C204     C      0.392240000000     0.098620000000     0.219320000000     0          
H205     H      0.398300000000     0.087100000000     0.198300000000     0          
C206     C      0.471390000000     0.074080000000     0.248310000000     0          
C207     C      0.482160000000     0.109330000000     0.247400000000     0          
H208     H      0.467400000000     0.129200000000     0.246800000000     0          
O209     O      0.172130000000     0.314520000000     0.778640000000     0          
C210     C      0.133870000000     0.376310000000     0.719360000000     0          
H211     H      0.146400000000     0.371400000000     0.698600000000     0          
C212     C      0.107760000000     0.401380000000     0.719320000000     0          
H213     H      0.101700000000     0.412900000000     0.698300000000     0          
C214     C      0.028610000000     0.425920000000     0.748310000000     0          
C215     C      0.017840000000     0.390670000000     0.747400000000     0          
H216     H      0.032600000000     0.370800000000     0.746800000000     0          
O217     O      0.672130000000     0.814520000000     0.278640000000     0          
C218     C      0.633870000000     0.876310000000     0.219360000000     0          
H219     H      0.646400000000     0.871400000000     0.198600000000     0          
C220     C      0.607760000000     0.901380000000     0.219320000000     0          
H221     H      0.601700000000     0.912900000000     0.198300000000     0          
C222     C      0.528610000000     0.925920000000     0.248310000000     0          
C223     C      0.517840000000     0.890670000000     0.247400000000     0          
H224     H      0.532600000000     0.870800000000     0.246800000000     0          
O225     O      0.827870000000     0.314520000000     0.221360000000     0          
C226     C      0.866130000000     0.376310000000     0.280640000000     0          
H227     H      0.853600000000     0.371400000000     0.301400000000     0          
C228     C      0.892240000000     0.401380000000     0.280680000000     0          
H229     H      0.898300000000     0.412900000000     0.301700000000     0          
C230     C      0.971390000000     0.425920000000     0.251690000000     0          
C231     C      0.982160000000     0.390670000000     0.252600000000     0          
H232     H      0.967400000000     0.370800000000     0.253200000000     0          
O233     O      0.327870000000     0.814520000000     0.721360000000     0          
C234     C      0.366130000000     0.876310000000     0.780640000000     0          
H235     H      0.353600000000     0.871400000000     0.801400000000     0          
C236     C      0.392240000000     0.901380000000     0.780680000000     0          
H237     H      0.398300000000     0.912900000000     0.801700000000     0          
C238     C      0.471390000000     0.925920000000     0.751690000000     0          
C239     C      0.482160000000     0.890670000000     0.752600000000     0          
H240     H      0.467400000000     0.870800000000     0.753200000000     0          
O241     O      0.172130000000     0.685480000000     0.221360000000     0          
C242     C      0.133870000000     0.623690000000     0.280640000000     0          
H243     H      0.146400000000     0.628600000000     0.301400000000     0          
C244     C      0.107760000000     0.598620000000     0.280680000000     0          
H245     H      0.101700000000     0.587100000000     0.301700000000     0          
C246     C      0.028610000000     0.574080000000     0.251690000000     0          
C247     C      0.017840000000     0.609330000000     0.252600000000     0          
H248     H      0.032600000000     0.629200000000     0.253200000000     0          
O249     O      0.672130000000     0.185480000000     0.721360000000     0          
C250     C      0.633870000000     0.123690000000     0.780640000000     0          
H251     H      0.646400000000     0.128600000000     0.801400000000     0          
C252     C      0.607760000000     0.098620000000     0.780680000000     0          
H253     H      0.601700000000     0.087100000000     0.801700000000     0          
C254     C      0.528610000000     0.074080000000     0.751690000000     0          
C255     C      0.517840000000     0.109330000000     0.752600000000     0          
H256     H      0.532600000000     0.129200000000     0.753200000000     0          
O257     O      0.685480000000     0.221360000000     0.172130000000     0          
C258     C      0.623690000000     0.280640000000     0.133870000000     0          
H259     H      0.628600000000     0.301400000000     0.146400000000     0          
C260     C      0.598620000000     0.280680000000     0.107760000000     0          
H261     H      0.587100000000     0.301700000000     0.101700000000     0          
C262     C      0.574080000000     0.251690000000     0.028610000000     0          
C263     C      0.609330000000     0.252600000000     0.017840000000     0          
H264     H      0.629200000000     0.253200000000     0.032600000000     0          
O265     O      0.185480000000     0.721360000000     0.672130000000     0          
C266     C      0.123690000000     0.780640000000     0.633870000000     0          
H267     H      0.128600000000     0.801400000000     0.646400000000     0          
C268     C      0.098620000000     0.780680000000     0.607760000000     0          
H269     H      0.087100000000     0.801700000000     0.601700000000     0          
C270     C      0.074080000000     0.751690000000     0.528610000000     0          
C271     C      0.109330000000     0.752600000000     0.517840000000     0          
H272     H      0.129200000000     0.753200000000     0.532600000000     0          
O273     O      0.314520000000     0.221360000000     0.827870000000     0          
C274     C      0.376310000000     0.280640000000     0.866130000000     0          
H275     H      0.371400000000     0.301400000000     0.853600000000     0          
C276     C      0.401380000000     0.280680000000     0.892240000000     0          
H277     H      0.412900000000     0.301700000000     0.898300000000     0          
C278     C      0.425920000000     0.251690000000     0.971390000000     0          
C279     C      0.390670000000     0.252600000000     0.982160000000     0          
H280     H      0.370800000000     0.253200000000     0.967400000000     0          
O281     O      0.814520000000     0.721360000000     0.327870000000     0          
C282     C      0.876310000000     0.780640000000     0.366130000000     0          
H283     H      0.871400000000     0.801400000000     0.353600000000     0          
C284     C      0.901380000000     0.780680000000     0.392240000000     0          
H285     H      0.912900000000     0.801700000000     0.398300000000     0          
C286     C      0.925920000000     0.751690000000     0.471390000000     0          
C287     C      0.890670000000     0.752600000000     0.482160000000     0          
H288     H      0.870800000000     0.753200000000     0.467400000000     0          
O289     O      0.314520000000     0.778640000000     0.172130000000     0          
C290     C      0.376310000000     0.719360000000     0.133870000000     0          
H291     H      0.371400000000     0.698600000000     0.146400000000     0          
C292     C      0.401380000000     0.719320000000     0.107760000000     0          
H293     H      0.412900000000     0.698300000000     0.101700000000     0          
C294     C      0.425920000000     0.748310000000     0.028610000000     0          
C295     C      0.390670000000     0.747400000000     0.017840000000     0          
H296     H      0.370800000000     0.746800000000     0.032600000000     0          
O297     O      0.814520000000     0.278640000000     0.672130000000     0          
C298     C      0.876310000000     0.219360000000     0.633870000000     0          
H299     H      0.871400000000     0.198600000000     0.646400000000     0          
C300     C      0.901380000000     0.219320000000     0.607760000000     0          
H301     H      0.912900000000     0.198300000000     0.601700000000     0          
C302     C      0.925920000000     0.248310000000     0.528610000000     0          
C303     C      0.890670000000     0.247400000000     0.517840000000     0          
H304     H      0.870800000000     0.246800000000     0.532600000000     0          
O305     O      0.685480000000     0.778640000000     0.827870000000     0          
C306     C      0.623690000000     0.719360000000     0.866130000000     0          
H307     H      0.628600000000     0.698600000000     0.853600000000     0          
C308     C      0.598620000000     0.719320000000     0.892240000000     0          
H309     H      0.587100000000     0.698300000000     0.898300000000     0          
C310     C      0.574080000000     0.748310000000     0.971390000000     0          
C311     C      0.609330000000     0.747400000000     0.982160000000     0          
H312     H      0.629200000000     0.746800000000     0.967400000000     0          
O313     O      0.185480000000     0.278640000000     0.327870000000     0          
C314     C      0.123690000000     0.219360000000     0.366130000000     0          
H315     H      0.128600000000     0.198600000000     0.353600000000     0          
C316     C      0.098620000000     0.219320000000     0.392240000000     0          
H317     H      0.087100000000     0.198300000000     0.398300000000     0          
C318     C      0.074080000000     0.248310000000     0.471390000000     0          
C319     C      0.109330000000     0.247400000000     0.482160000000     0          
H320     H      0.129200000000     0.246800000000     0.467400000000     0          
O321     O      0.221360000000     0.827870000000     0.314520000000     0          
C322     C      0.280640000000     0.866130000000     0.376310000000     0          
H323     H      0.301400000000     0.853600000000     0.371400000000     0          
C324     C      0.280680000000     0.892240000000     0.401380000000     0          
H325     H      0.301700000000     0.898300000000     0.412900000000     0          
C326     C      0.251690000000     0.971390000000     0.425920000000     0          
C327     C      0.252600000000     0.982160000000     0.390670000000     0          
H328     H      0.253200000000     0.967400000000     0.370800000000     0          
O329     O      0.721360000000     0.327870000000     0.814520000000     0          
C330     C      0.780640000000     0.366130000000     0.876310000000     0          
H331     H      0.801400000000     0.353600000000     0.871400000000     0          
C332     C      0.780680000000     0.392240000000     0.901380000000     0          
H333     H      0.801700000000     0.398300000000     0.912900000000     0          
C334     C      0.751690000000     0.471390000000     0.925920000000     0          
C335     C      0.752600000000     0.482160000000     0.890670000000     0          
H336     H      0.753200000000     0.467400000000     0.870800000000     0          
O337     O      0.221360000000     0.172130000000     0.685480000000     0          
C338     C      0.280640000000     0.133870000000     0.623690000000     0          
H339     H      0.301400000000     0.146400000000     0.628600000000     0          
C340     C      0.280680000000     0.107760000000     0.598620000000     0          
H341     H      0.301700000000     0.101700000000     0.587100000000     0          
C342     C      0.251690000000     0.028610000000     0.574080000000     0          
C343     C      0.252600000000     0.017840000000     0.609330000000     0          
H344     H      0.253200000000     0.032600000000     0.629200000000     0          
O345     O      0.721360000000     0.672130000000     0.185480000000     0          
C346     C      0.780640000000     0.633870000000     0.123690000000     0          
H347     H      0.801400000000     0.646400000000     0.128600000000     0          
C348     C      0.780680000000     0.607760000000     0.098620000000     0          
H349     H      0.801700000000     0.601700000000     0.087100000000     0          
C350     C      0.751690000000     0.528610000000     0.074080000000     0          
C351     C      0.752600000000     0.517840000000     0.109330000000     0          
H352     H      0.753200000000     0.532600000000     0.129200000000     0          
O353     O      0.778640000000     0.827870000000     0.685480000000     0          
C354     C      0.719360000000     0.866130000000     0.623690000000     0          
H355     H      0.698600000000     0.853600000000     0.628600000000     0          
C356     C      0.719320000000     0.892240000000     0.598620000000     0          
H357     H      0.698300000000     0.898300000000     0.587100000000     0          
C358     C      0.748310000000     0.971390000000     0.574080000000     0          
C359     C      0.747400000000     0.982160000000     0.609330000000     0          
H360     H      0.746800000000     0.967400000000     0.629200000000     0          
O361     O      0.278640000000     0.327870000000     0.185480000000     0          
C362     C      0.219360000000     0.366130000000     0.123690000000     0          
H363     H      0.198600000000     0.353600000000     0.128600000000     0          
C364     C      0.219320000000     0.392240000000     0.098620000000     0          
H365     H      0.198300000000     0.398300000000     0.087100000000     0          
C366     C      0.248310000000     0.471390000000     0.074080000000     0          
C367     C      0.247400000000     0.482160000000     0.109330000000     0          
H368     H      0.246800000000     0.467400000000     0.129200000000     0          
O369     O      0.778640000000     0.172130000000     0.314520000000     0          
C370     C      0.719360000000     0.133870000000     0.376310000000     0          
H371     H      0.698600000000     0.146400000000     0.371400000000     0          
C372     C      0.719320000000     0.107760000000     0.401380000000     0          
H373     H      0.698300000000     0.101700000000     0.412900000000     0          
C374     C      0.748310000000     0.028610000000     0.425920000000     0          
C375     C      0.747400000000     0.017840000000     0.390670000000     0          
H376     H      0.746800000000     0.032600000000     0.370800000000     0          
O377     O      0.278640000000     0.672130000000     0.814520000000     0          
C378     C      0.219360000000     0.633870000000     0.876310000000     0          
H379     H      0.198600000000     0.646400000000     0.871400000000     0          
C380     C      0.219320000000     0.607760000000     0.901380000000     0          
H381     H      0.198300000000     0.601700000000     0.912900000000     0          
C382     C      0.248310000000     0.528610000000     0.925920000000     0          
C383     C      0.247400000000     0.517840000000     0.890670000000     0          
H384     H      0.246800000000     0.532600000000     0.870800000000     0          
O385     O      0.314520000000     0.172130000000     0.778640000000     0          
C386     C      0.376310000000     0.133870000000     0.719360000000     0          
H387     H      0.371400000000     0.146400000000     0.698600000000     0          
C388     C      0.401380000000     0.107760000000     0.719320000000     0          
H389     H      0.412900000000     0.101700000000     0.698300000000     0          
C390     C      0.425920000000     0.028610000000     0.748310000000     0          
C391     C      0.390670000000     0.017840000000     0.747400000000     0          
H392     H      0.370800000000     0.032600000000     0.746800000000     0          
O393     O      0.814520000000     0.672130000000     0.278640000000     0          
C394     C      0.876310000000     0.633870000000     0.219360000000     0          
H395     H      0.871400000000     0.646400000000     0.198600000000     0          
C396     C      0.901380000000     0.607760000000     0.219320000000     0          
H397     H      0.912900000000     0.601700000000     0.198300000000     0          
C398     C      0.925920000000     0.528610000000     0.248310000000     0          
C399     C      0.890670000000     0.517840000000     0.247400000000     0          
H400     H      0.870800000000     0.532600000000     0.246800000000     0          
O401     O      0.685480000000     0.827870000000     0.778640000000     0          
C402     C      0.623690000000     0.866130000000     0.719360000000     0          
H403     H      0.628600000000     0.853600000000     0.698600000000     0          
C404     C      0.598620000000     0.892240000000     0.719320000000     0          
H405     H      0.587100000000     0.898300000000     0.698300000000     0          
C406     C      0.574080000000     0.971390000000     0.748310000000     0          
C407     C      0.609330000000     0.982160000000     0.747400000000     0          
H408     H      0.629200000000     0.967400000000     0.746800000000     0          
O409     O      0.185480000000     0.327870000000     0.278640000000     0          
C410     C      0.123690000000     0.366130000000     0.219360000000     0          
H411     H      0.128600000000     0.353600000000     0.198600000000     0          
C412     C      0.098620000000     0.392240000000     0.219320000000     0          
H413     H      0.087100000000     0.398300000000     0.198300000000     0          
C414     C      0.074080000000     0.471390000000     0.248310000000     0          
C415     C      0.109330000000     0.482160000000     0.247400000000     0          
H416     H      0.129200000000     0.467400000000     0.246800000000     0          
O417     O      0.685480000000     0.172130000000     0.221360000000     0          
C418     C      0.623690000000     0.133870000000     0.280640000000     0          
H419     H      0.628600000000     0.146400000000     0.301400000000     0          
C420     C      0.598620000000     0.107760000000     0.280680000000     0          
H421     H      0.587100000000     0.101700000000     0.301700000000     0          
C422     C      0.574080000000     0.028610000000     0.251690000000     0          
C423     C      0.609330000000     0.017840000000     0.252600000000     0          
H424     H      0.629200000000     0.032600000000     0.253200000000     0          
O425     O      0.185480000000     0.672130000000     0.721360000000     0          
C426     C      0.123690000000     0.633870000000     0.780640000000     0          
H427     H      0.128600000000     0.646400000000     0.801400000000     0          
C428     C      0.098620000000     0.607760000000     0.780680000000     0          
H429     H      0.087100000000     0.601700000000     0.801700000000     0          
C430     C      0.074080000000     0.528610000000     0.751690000000     0          
C431     C      0.109330000000     0.517840000000     0.752600000000     0          
H432     H      0.129200000000     0.532600000000     0.753200000000     0          
O433     O      0.314520000000     0.827870000000     0.221360000000     0          
C434     C      0.376310000000     0.866130000000     0.280640000000     0          
H435     H      0.371400000000     0.853600000000     0.301400000000     0          
C436     C      0.401380000000     0.892240000000     0.280680000000     0          
H437     H      0.412900000000     0.898300000000     0.301700000000     0          
C438     C      0.425920000000     0.971390000000     0.251690000000     0          
C439     C      0.390670000000     0.982160000000     0.252600000000     0          
H440     H      0.370800000000     0.967400000000     0.253200000000     0          
O441     O      0.814520000000     0.327870000000     0.721360000000     0          
C442     C      0.876310000000     0.366130000000     0.780640000000     0          
H443     H      0.871400000000     0.353600000000     0.801400000000     0          
C444     C      0.901380000000     0.392240000000     0.780680000000     0          
H445     H      0.912900000000     0.398300000000     0.801700000000     0          
C446     C      0.925920000000     0.471390000000     0.751690000000     0          
C447     C      0.890670000000     0.482160000000     0.752600000000     0          
H448     H      0.870800000000     0.467400000000     0.753200000000     0          
O449     O      0.778640000000     0.314520000000     0.172130000000     0          
C450     C      0.719360000000     0.376310000000     0.133870000000     0          
H451     H      0.698600000000     0.371400000000     0.146400000000     0          
C452     C      0.719320000000     0.401380000000     0.107760000000     0          
H453     H      0.698300000000     0.412900000000     0.101700000000     0          
C454     C      0.748310000000     0.425920000000     0.028610000000     0          
C455     C      0.747400000000     0.390670000000     0.017840000000     0          
H456     H      0.746800000000     0.370800000000     0.032600000000     0          
O457     O      0.278640000000     0.814520000000     0.672130000000     0          
C458     C      0.219360000000     0.876310000000     0.633870000000     0          
H459     H      0.198600000000     0.871400000000     0.646400000000     0          
C460     C      0.219320000000     0.901380000000     0.607760000000     0          
H461     H      0.198300000000     0.912900000000     0.601700000000     0          
C462     C      0.248310000000     0.925920000000     0.528610000000     0          
C463     C      0.247400000000     0.890670000000     0.517840000000     0          
H464     H      0.246800000000     0.870800000000     0.532600000000     0          
O465     O      0.778640000000     0.685480000000     0.827870000000     0          
C466     C      0.719360000000     0.623690000000     0.866130000000     0          
H467     H      0.698600000000     0.628600000000     0.853600000000     0          
C468     C      0.719320000000     0.598620000000     0.892240000000     0          
H469     H      0.698300000000     0.587100000000     0.898300000000     0          
C470     C      0.748310000000     0.574080000000     0.971390000000     0          
C471     C      0.747400000000     0.609330000000     0.982160000000     0          
H472     H      0.746800000000     0.629200000000     0.967400000000     0          
O473     O      0.278640000000     0.185480000000     0.327870000000     0          
C474     C      0.219360000000     0.123690000000     0.366130000000     0          
H475     H      0.198600000000     0.128600000000     0.353600000000     0          
C476     C      0.219320000000     0.098620000000     0.392240000000     0          
H477     H      0.198300000000     0.087100000000     0.398300000000     0          
C478     C      0.248310000000     0.074080000000     0.471390000000     0          
C479     C      0.247400000000     0.109330000000     0.482160000000     0          
H480     H      0.246800000000     0.129200000000     0.467400000000     0          
O481     O      0.221360000000     0.685480000000     0.172130000000     0          
C482     C      0.280640000000     0.623690000000     0.133870000000     0          
H483     H      0.301400000000     0.628600000000     0.146400000000     0          
C484     C      0.280680000000     0.598620000000     0.107760000000     0          
H485     H      0.301700000000     0.587100000000     0.101700000000     0          
C486     C      0.251690000000     0.574080000000     0.028610000000     0          
C487     C      0.252600000000     0.609330000000     0.017840000000     0          
H488     H      0.253200000000     0.629200000000     0.032600000000     0          
O489     O      0.721360000000     0.185480000000     0.672130000000     0          
C490     C      0.780640000000     0.123690000000     0.633870000000     0          
H491     H      0.801400000000     0.128600000000     0.646400000000     0          
C492     C      0.780680000000     0.098620000000     0.607760000000     0          
H493     H      0.801700000000     0.087100000000     0.601700000000     0          
C494     C      0.751690000000     0.074080000000     0.528610000000     0          
C495     C      0.752600000000     0.109330000000     0.517840000000     0          
H496     H      0.753200000000     0.129200000000     0.532600000000     0          
O497     O      0.221360000000     0.314520000000     0.827870000000     0          
C498     C      0.280640000000     0.376310000000     0.866130000000     0          
H499     H      0.301400000000     0.371400000000     0.853600000000     0          
C500     C      0.280680000000     0.401380000000     0.892240000000     0          
H501     H      0.301700000000     0.412900000000     0.898300000000     0          
C502     C      0.251690000000     0.425920000000     0.971390000000     0          
C503     C      0.252600000000     0.390670000000     0.982160000000     0          
H504     H      0.253200000000     0.370800000000     0.967400000000     0          
O505     O      0.721360000000     0.814520000000     0.327870000000     0          
C506     C      0.780640000000     0.876310000000     0.366130000000     0          
H507     H      0.801400000000     0.871400000000     0.353600000000     0          
C508     C      0.780680000000     0.901380000000     0.392240000000     0          
H509     H      0.801700000000     0.912900000000     0.398300000000     0          
C510     C      0.751690000000     0.925920000000     0.471390000000     0          
C511     C      0.752600000000     0.890670000000     0.482160000000     0          
H512     H      0.753200000000     0.870800000000     0.467400000000     0          
O513     O      0.172130000000     0.778640000000     0.314520000000     0          
C514     C      0.133870000000     0.719360000000     0.376310000000     0          
H515     H      0.146400000000     0.698600000000     0.371400000000     0          
C516     C      0.107760000000     0.719320000000     0.401380000000     0          
H517     H      0.101700000000     0.698300000000     0.412900000000     0          
C518     C      0.028610000000     0.748310000000     0.425920000000     0          
C519     C      0.017840000000     0.747400000000     0.390670000000     0          
H520     H      0.032600000000     0.746800000000     0.370800000000     0          
O521     O      0.672130000000     0.278640000000     0.814520000000     0          
C522     C      0.633870000000     0.219360000000     0.876310000000     0          
H523     H      0.646400000000     0.198600000000     0.871400000000     0          
C524     C      0.607760000000     0.219320000000     0.901380000000     0          
H525     H      0.601700000000     0.198300000000     0.912900000000     0          
C526     C      0.528610000000     0.248310000000     0.925920000000     0          
C527     C      0.517840000000     0.247400000000     0.890670000000     0          
H528     H      0.532600000000     0.246800000000     0.870800000000     0          
O529     O      0.827870000000     0.778640000000     0.685480000000     0          
C530     C      0.866130000000     0.719360000000     0.623690000000     0          
H531     H      0.853600000000     0.698600000000     0.628600000000     0          
C532     C      0.892240000000     0.719320000000     0.598620000000     0          
H533     H      0.898300000000     0.698300000000     0.587100000000     0          
C534     C      0.971390000000     0.748310000000     0.574080000000     0          
C535     C      0.982160000000     0.747400000000     0.609330000000     0          
H536     H      0.967400000000     0.746800000000     0.629200000000     0          
O537     O      0.327870000000     0.278640000000     0.185480000000     0          
C538     C      0.366130000000     0.219360000000     0.123690000000     0          
H539     H      0.353600000000     0.198600000000     0.128600000000     0          
C540     C      0.392240000000     0.219320000000     0.098620000000     0          
H541     H      0.398300000000     0.198300000000     0.087100000000     0          
C542     C      0.471390000000     0.248310000000     0.074080000000     0          
C543     C      0.482160000000     0.247400000000     0.109330000000     0          
H544     H      0.467400000000     0.246800000000     0.129200000000     0          
O545     O      0.172130000000     0.221360000000     0.685480000000     0          
C546     C      0.133870000000     0.280640000000     0.623690000000     0          
H547     H      0.146400000000     0.301400000000     0.628600000000     0          
C548     C      0.107760000000     0.280680000000     0.598620000000     0          
H549     H      0.101700000000     0.301700000000     0.587100000000     0          
C550     C      0.028610000000     0.251690000000     0.574080000000     0          
C551     C      0.017840000000     0.252600000000     0.609330000000     0          
H552     H      0.032600000000     0.253200000000     0.629200000000     0          
O553     O      0.672130000000     0.721360000000     0.185480000000     0          
C554     C      0.633870000000     0.780640000000     0.123690000000     0          
H555     H      0.646400000000     0.801400000000     0.128600000000     0          
C556     C      0.607760000000     0.780680000000     0.098620000000     0          
H557     H      0.601700000000     0.801700000000     0.087100000000     0          
C558     C      0.528610000000     0.751690000000     0.074080000000     0          
C559     C      0.517840000000     0.752600000000     0.109330000000     0          
H560     H      0.532600000000     0.753200000000     0.129200000000     0          
O561     O      0.827870000000     0.221360000000     0.314520000000     0          
C562     C      0.866130000000     0.280640000000     0.376310000000     0          
H563     H      0.853600000000     0.301400000000     0.371400000000     0          
C564     C      0.892240000000     0.280680000000     0.401380000000     0          
H565     H      0.898300000000     0.301700000000     0.412900000000     0          
C566     C      0.971390000000     0.251690000000     0.425920000000     0          
C567     C      0.982160000000     0.252600000000     0.390670000000     0          
H568     H      0.967400000000     0.253200000000     0.370800000000     0          
O569     O      0.327870000000     0.721360000000     0.814520000000     0          
C570     C      0.366130000000     0.780640000000     0.876310000000     0          
H571     H      0.353600000000     0.801400000000     0.871400000000     0          
C572     C      0.392240000000     0.780680000000     0.901380000000     0          
H573     H      0.398300000000     0.801700000000     0.912900000000     0          
C574     C      0.471390000000     0.751690000000     0.925920000000     0          
C575     C      0.482160000000     0.752600000000     0.890670000000     0          
H576     H      0.467400000000     0.753200000000     0.870800000000     0          
O577     O      0.172130000000     0.314520000000     0.221360000000     0          
C578     C      0.133870000000     0.376310000000     0.280640000000     0          
H579     H      0.146400000000     0.371400000000     0.301400000000     0          
C580     C      0.107760000000     0.401380000000     0.280680000000     0          
H581     H      0.101700000000     0.412900000000     0.301700000000     0          
C582     C      0.028610000000     0.425920000000     0.251690000000     0          
C583     C      0.017840000000     0.390670000000     0.252600000000     0          
H584     H      0.032600000000     0.370800000000     0.253200000000     0          
O585     O      0.672130000000     0.814520000000     0.721360000000     0          
C586     C      0.633870000000     0.876310000000     0.780640000000     0          
H587     H      0.646400000000     0.871400000000     0.801400000000     0          
C588     C      0.607760000000     0.901380000000     0.780680000000     0          
H589     H      0.601700000000     0.912900000000     0.801700000000     0          
C590     C      0.528610000000     0.925920000000     0.751690000000     0          
C591     C      0.517840000000     0.890670000000     0.752600000000     0          
H592     H      0.532600000000     0.870800000000     0.753200000000     0          
O593     O      0.827870000000     0.685480000000     0.221360000000     0          
C594     C      0.866130000000     0.623690000000     0.280640000000     0          
H595     H      0.853600000000     0.628600000000     0.301400000000     0          
C596     C      0.892240000000     0.598620000000     0.280680000000     0          
H597     H      0.898300000000     0.587100000000     0.301700000000     0          
C598     C      0.971390000000     0.574080000000     0.251690000000     0          
C599     C      0.982160000000     0.609330000000     0.252600000000     0          
H600     H      0.967400000000     0.629200000000     0.253200000000     0          
O601     O      0.327870000000     0.185480000000     0.721360000000     0          
C602     C      0.366130000000     0.123690000000     0.780640000000     0          
H603     H      0.353600000000     0.128600000000     0.801400000000     0          
C604     C      0.392240000000     0.098620000000     0.780680000000     0          
H605     H      0.398300000000     0.087100000000     0.801700000000     0          
C606     C      0.471390000000     0.074080000000     0.751690000000     0          
C607     C      0.482160000000     0.109330000000     0.752600000000     0          
H608     H      0.467400000000     0.129200000000     0.753200000000     0          
O609     O      0.172130000000     0.685480000000     0.778640000000     0          
C610     C      0.133870000000     0.623690000000     0.719360000000     0          
H611     H      0.146400000000     0.628600000000     0.698600000000     0          
C612     C      0.107760000000     0.598620000000     0.719320000000     0          
H613     H      0.101700000000     0.587100000000     0.698300000000     0          
C614     C      0.028610000000     0.574080000000     0.748310000000     0          
C615     C      0.017840000000     0.609330000000     0.747400000000     0          
H616     H      0.032600000000     0.629200000000     0.746800000000     0          
O617     O      0.672130000000     0.185480000000     0.278640000000     0          
C618     C      0.633870000000     0.123690000000     0.219360000000     0          
H619     H      0.646400000000     0.128600000000     0.198600000000     0          
C620     C      0.607760000000     0.098620000000     0.219320000000     0          
H621     H      0.601700000000     0.087100000000     0.198300000000     0          
C622     C      0.528610000000     0.074080000000     0.248310000000     0          
C623     C      0.517840000000     0.109330000000     0.247400000000     0          
H624     H      0.532600000000     0.129200000000     0.246800000000     0          
O625     O      0.827870000000     0.314520000000     0.778640000000     0          
C626     C      0.866130000000     0.376310000000     0.719360000000     0          
H627     H      0.853600000000     0.371400000000     0.698600000000     0          
C628     C      0.892240000000     0.401380000000     0.719320000000     0          
H629     H      0.898300000000     0.412900000000     0.698300000000     0          
C630     C      0.971390000000     0.425920000000     0.748310000000     0          
C631     C      0.982160000000     0.390670000000     0.747400000000     0          
H632     H      0.967400000000     0.370800000000     0.746800000000     0          
O633     O      0.327870000000     0.814520000000     0.278640000000     0          
C634     C      0.366130000000     0.876310000000     0.219360000000     0          
H635     H      0.353600000000     0.871400000000     0.198600000000     0          
C636     C      0.392240000000     0.901380000000     0.219320000000     0          
H637     H      0.398300000000     0.912900000000     0.198300000000     0          
C638     C      0.471390000000     0.925920000000     0.248310000000     0          
C639     C      0.482160000000     0.890670000000     0.247400000000     0          
H640     H      0.467400000000     0.870800000000     0.246800000000     0          
O641     O      0.314520000000     0.778640000000     0.827870000000     0          
C642     C      0.376310000000     0.719360000000     0.866130000000     0          
H643     H      0.371400000000     0.698600000000     0.853600000000     0          
C644     C      0.401380000000     0.719320000000     0.892240000000     0          
H645     H      0.412900000000     0.698300000000     0.898300000000     0          
C646     C      0.425920000000     0.748310000000     0.971390000000     0          
C647     C      0.390670000000     0.747400000000     0.982160000000     0          
H648     H      0.370800000000     0.746800000000     0.967400000000     0          
O649     O      0.814520000000     0.278640000000     0.327870000000     0          
C650     C      0.876310000000     0.219360000000     0.366130000000     0          
H651     H      0.871400000000     0.198600000000     0.353600000000     0          
C652     C      0.901380000000     0.219320000000     0.392240000000     0          
H653     H      0.912900000000     0.198300000000     0.398300000000     0          
C654     C      0.925920000000     0.248310000000     0.471390000000     0          
C655     C      0.890670000000     0.247400000000     0.482160000000     0          
H656     H      0.870800000000     0.246800000000     0.467400000000     0          
O657     O      0.685480000000     0.778640000000     0.172130000000     0          
C658     C      0.623690000000     0.719360000000     0.133870000000     0          
H659     H      0.628600000000     0.698600000000     0.146400000000     0          
C660     C      0.598620000000     0.719320000000     0.107760000000     0          
H661     H      0.587100000000     0.698300000000     0.101700000000     0          
C662     C      0.574080000000     0.748310000000     0.028610000000     0          
C663     C      0.609330000000     0.747400000000     0.017840000000     0          
H664     H      0.629200000000     0.746800000000     0.032600000000     0          
O665     O      0.185480000000     0.278640000000     0.672130000000     0          
C666     C      0.123690000000     0.219360000000     0.633870000000     0          
H667     H      0.128600000000     0.198600000000     0.646400000000     0          
C668     C      0.098620000000     0.219320000000     0.607760000000     0          
H669     H      0.087100000000     0.198300000000     0.601700000000     0          
C670     C      0.074080000000     0.248310000000     0.528610000000     0          
C671     C      0.109330000000     0.247400000000     0.517840000000     0          
H672     H      0.129200000000     0.246800000000     0.532600000000     0          
O673     O      0.685480000000     0.221360000000     0.827870000000     0          
C674     C      0.623690000000     0.280640000000     0.866130000000     0          
H675     H      0.628600000000     0.301400000000     0.853600000000     0          
C676     C      0.598620000000     0.280680000000     0.892240000000     0          
H677     H      0.587100000000     0.301700000000     0.898300000000     0          
C678     C      0.574080000000     0.251690000000     0.971390000000     0          
C679     C      0.609330000000     0.252600000000     0.982160000000     0          
H680     H      0.629200000000     0.253200000000     0.967400000000     0          
O681     O      0.185480000000     0.721360000000     0.327870000000     0          
C682     C      0.123690000000     0.780640000000     0.366130000000     0          
H683     H      0.128600000000     0.801400000000     0.353600000000     0          
C684     C      0.098620000000     0.780680000000     0.392240000000     0          
H685     H      0.087100000000     0.801700000000     0.398300000000     0          
C686     C      0.074080000000     0.751690000000     0.471390000000     0          
C687     C      0.109330000000     0.752600000000     0.482160000000     0          
H688     H      0.129200000000     0.753200000000     0.467400000000     0          
O689     O      0.314520000000     0.221360000000     0.172130000000     0          
C690     C      0.376310000000     0.280640000000     0.133870000000     0          
H691     H      0.371400000000     0.301400000000     0.146400000000     0          
C692     C      0.401380000000     0.280680000000     0.107760000000     0          
H693     H      0.412900000000     0.301700000000     0.101700000000     0          
C694     C      0.425920000000     0.251690000000     0.028610000000     0          
C695     C      0.390670000000     0.252600000000     0.017840000000     0          
H696     H      0.370800000000     0.253200000000     0.032600000000     0          
O697     O      0.814520000000     0.721360000000     0.672130000000     0          
C698     C      0.876310000000     0.780640000000     0.633870000000     0          
H699     H      0.871400000000     0.801400000000     0.646400000000     0          
C700     C      0.901380000000     0.780680000000     0.607760000000     0          
H701     H      0.912900000000     0.801700000000     0.601700000000     0          
C702     C      0.925920000000     0.751690000000     0.528610000000     0          
C703     C      0.890670000000     0.752600000000     0.517840000000     0          
H704     H      0.870800000000     0.753200000000     0.532600000000     0          
O705     O      0.778640000000     0.172130000000     0.685480000000     0          
C706     C      0.719360000000     0.133870000000     0.623690000000     0          
H707     H      0.698600000000     0.146400000000     0.628600000000     0          
C708     C      0.719320000000     0.107760000000     0.598620000000     0          
H709     H      0.698300000000     0.101700000000     0.587100000000     0          
C710     C      0.748310000000     0.028610000000     0.574080000000     0          
C711     C      0.747400000000     0.017840000000     0.609330000000     0          
H712     H      0.746800000000     0.032600000000     0.629200000000     0          
O713     O      0.278640000000     0.672130000000     0.185480000000     0          
C714     C      0.219360000000     0.633870000000     0.123690000000     0          
H715     H      0.198600000000     0.646400000000     0.128600000000     0          
C716     C      0.219320000000     0.607760000000     0.098620000000     0          
H717     H      0.198300000000     0.601700000000     0.087100000000     0          
C718     C      0.248310000000     0.528610000000     0.074080000000     0          
C719     C      0.247400000000     0.517840000000     0.109330000000     0          
H720     H      0.246800000000     0.532600000000     0.129200000000     0          
O721     O      0.778640000000     0.827870000000     0.314520000000     0          
C722     C      0.719360000000     0.866130000000     0.376310000000     0          
H723     H      0.698600000000     0.853600000000     0.371400000000     0          
C724     C      0.719320000000     0.892240000000     0.401380000000     0          
H725     H      0.698300000000     0.898300000000     0.412900000000     0          
C726     C      0.748310000000     0.971390000000     0.425920000000     0          
C727     C      0.747400000000     0.982160000000     0.390670000000     0          
H728     H      0.746800000000     0.967400000000     0.370800000000     0          
O729     O      0.278640000000     0.327870000000     0.814520000000     0          
C730     C      0.219360000000     0.366130000000     0.876310000000     0          
H731     H      0.198600000000     0.353600000000     0.871400000000     0          
C732     C      0.219320000000     0.392240000000     0.901380000000     0          
H733     H      0.198300000000     0.398300000000     0.912900000000     0          
C734     C      0.248310000000     0.471390000000     0.925920000000     0          
C735     C      0.247400000000     0.482160000000     0.890670000000     0          
H736     H      0.246800000000     0.467400000000     0.870800000000     0          
O737     O      0.221360000000     0.172130000000     0.314520000000     0          
C738     C      0.280640000000     0.133870000000     0.376310000000     0          
H739     H      0.301400000000     0.146400000000     0.371400000000     0          
C740     C      0.280680000000     0.107760000000     0.401380000000     0          
H741     H      0.301700000000     0.101700000000     0.412900000000     0          
C742     C      0.251690000000     0.028610000000     0.425920000000     0          
C743     C      0.252600000000     0.017840000000     0.390670000000     0          
H744     H      0.253200000000     0.032600000000     0.370800000000     0          
O745     O      0.721360000000     0.672130000000     0.814520000000     0          
C746     C      0.780640000000     0.633870000000     0.876310000000     0          
H747     H      0.801400000000     0.646400000000     0.871400000000     0          
C748     C      0.780680000000     0.607760000000     0.901380000000     0          
H749     H      0.801700000000     0.601700000000     0.912900000000     0          
C750     C      0.751690000000     0.528610000000     0.925920000000     0          
C751     C      0.752600000000     0.517840000000     0.890670000000     0          
H752     H      0.753200000000     0.532600000000     0.870800000000     0          
O753     O      0.221360000000     0.827870000000     0.685480000000     0          
C754     C      0.280640000000     0.866130000000     0.623690000000     0          
H755     H      0.301400000000     0.853600000000     0.628600000000     0          
C756     C      0.280680000000     0.892240000000     0.598620000000     0          
H757     H      0.301700000000     0.898300000000     0.587100000000     0          
C758     C      0.251690000000     0.971390000000     0.574080000000     0          
C759     C      0.252600000000     0.982160000000     0.609330000000     0          
H760     H      0.253200000000     0.967400000000     0.629200000000     0          
O761     O      0.721360000000     0.327870000000     0.185480000000     0          
C762     C      0.780640000000     0.366130000000     0.123690000000     0          
H763     H      0.801400000000     0.353600000000     0.128600000000     0          
C764     C      0.780680000000     0.392240000000     0.098620000000     0          
H765     H      0.801700000000     0.398300000000     0.087100000000     0          
C766     C      0.751690000000     0.471390000000     0.074080000000     0          
C767     C      0.752600000000     0.482160000000     0.109330000000     0          
H768     H      0.753200000000     0.467400000000     0.129200000000     0          
Zr769    Zr     0.728770000000     0.793120000000     0.206880000000     0          
Zr770    Zr     0.228770000000     0.293120000000     0.706880000000     0          
Zr771    Zr     0.271230000000     0.206880000000     0.206880000000     0          
Zr772    Zr     0.771230000000     0.706880000000     0.706880000000     0          
Zr773    Zr     0.271230000000     0.793120000000     0.793120000000     0          
Zr774    Zr     0.771230000000     0.293120000000     0.293120000000     0          
Zr775    Zr     0.728770000000     0.206880000000     0.793120000000     0          
Zr776    Zr     0.228770000000     0.706880000000     0.293120000000     0          
Zr777    Zr     0.206880000000     0.728770000000     0.793120000000     0          
Zr778    Zr     0.706880000000     0.228770000000     0.293120000000     0          
Zr779    Zr     0.206880000000     0.271230000000     0.206880000000     0          
Zr780    Zr     0.706880000000     0.771230000000     0.706880000000     0          
Zr781    Zr     0.793120000000     0.271230000000     0.793120000000     0          
Zr782    Zr     0.293120000000     0.771230000000     0.293120000000     0          
Zr783    Zr     0.793120000000     0.728770000000     0.206880000000     0          
Zr784    Zr     0.293120000000     0.228770000000     0.706880000000     0          
Zr785    Zr     0.793120000000     0.206880000000     0.728770000000     0          
Zr786    Zr     0.293120000000     0.706880000000     0.228770000000     0          
Zr787    Zr     0.206880000000     0.206880000000     0.271230000000     0          
Zr788    Zr     0.706880000000     0.706880000000     0.771230000000     0          
Zr789    Zr     0.793120000000     0.793120000000     0.271230000000     0          
Zr790    Zr     0.293120000000     0.293120000000     0.771230000000     0          
Zr791    Zr     0.206880000000     0.793120000000     0.728770000000     0          
Zr792    Zr     0.706880000000     0.293120000000     0.228770000000     0          
Zr793    Zr     0.793120000000     0.728770000000     0.793120000000     0          
Zr794    Zr     0.293120000000     0.228770000000     0.293120000000     0          
Zr795    Zr     0.206880000000     0.271230000000     0.793120000000     0          
Zr796    Zr     0.706880000000     0.771230000000     0.293120000000     0          
Zr797    Zr     0.793120000000     0.271230000000     0.206880000000     0          
Zr798    Zr     0.293120000000     0.771230000000     0.706880000000     0          
Zr799    Zr     0.206880000000     0.728770000000     0.206880000000     0          
Zr800    Zr     0.706880000000     0.228770000000     0.706880000000     0          
Zr801    Zr     0.728770000000     0.206880000000     0.206880000000     0          
Zr802    Zr     0.228770000000     0.706880000000     0.706880000000     0          
Zr803    Zr     0.271230000000     0.206880000000     0.793120000000     0          
Zr804    Zr     0.771230000000     0.706880000000     0.293120000000     0          
Zr805    Zr     0.271230000000     0.793120000000     0.206880000000     0          
Zr806    Zr     0.771230000000     0.293120000000     0.706880000000     0          
Zr807    Zr     0.728770000000     0.793120000000     0.793120000000     0          
Zr808    Zr     0.228770000000     0.293120000000     0.293120000000     0          
Zr809    Zr     0.206880000000     0.793120000000     0.271230000000     0          
Zr810    Zr     0.706880000000     0.293120000000     0.771230000000     0          
Zr811    Zr     0.206880000000     0.206880000000     0.728770000000     0          
Zr812    Zr     0.706880000000     0.706880000000     0.228770000000     0          
Zr813    Zr     0.793120000000     0.793120000000     0.728770000000     0          
Zr814    Zr     0.293120000000     0.293120000000     0.228770000000     0          
Zr815    Zr     0.793120000000     0.206880000000     0.271230000000     0          
Zr816    Zr     0.293120000000     0.706880000000     0.771230000000     0          
Rh817    Rh     0.500000000000     0.000000000000     0.250000000000     0          
Rh818    Rh     0.500000000000     0.000000000000     0.750000000000     0          
Rh819    Rh     0.250000000000     0.500000000000     0.000000000000     0          
Rh820    Rh     0.750000000000     0.500000000000     0.000000000000     0          
Rh821    Rh     0.000000000000     0.250000000000     0.500000000000     0          
Rh822    Rh     0.000000000000     0.750000000000     0.500000000000     0          
Rh823    Rh     0.500000000000     0.250000000000     0.000000000000     0          
Rh824    Rh     0.000000000000     0.500000000000     0.750000000000     0          
Rh825    Rh     0.000000000000     0.500000000000     0.250000000000     0          
Rh826    Rh     0.500000000000     0.750000000000     0.000000000000     0          
Rh827    Rh     0.250000000000     0.000000000000     0.500000000000     0          
Rh828    Rh     0.750000000000     0.000000000000     0.500000000000     0          
O829     O      0.783090000000     0.783090000000     0.216910000000     0          
O830     O      0.283090000000     0.283090000000     0.716910000000     0          
O831     O      0.216910000000     0.216910000000     0.216910000000     0          
O832     O      0.716910000000     0.716910000000     0.716910000000     0          
O833     O      0.216910000000     0.783090000000     0.783090000000     0          
O834     O      0.716910000000     0.283090000000     0.283090000000     0          
O835     O      0.783090000000     0.216910000000     0.783090000000     0          
O836     O      0.283090000000     0.716910000000     0.283090000000     0          
O837     O      0.783090000000     0.783090000000     0.783090000000     0          
O838     O      0.283090000000     0.283090000000     0.283090000000     0          
O839     O      0.216910000000     0.216910000000     0.783090000000     0          
O840     O      0.716910000000     0.716910000000     0.283090000000     0          
O841     O      0.783090000000     0.216910000000     0.216910000000     0          
O842     O      0.283090000000     0.716910000000     0.716910000000     0          
O843     O      0.216910000000     0.783090000000     0.216910000000     0          
O844     O      0.716910000000     0.283090000000     0.716910000000     0          
O845     O      0.740490000000     0.802800000000     0.259510000000     0          
O846     O      0.240490000000     0.302800000000     0.759510000000     0          
O847     O      0.259510000000     0.197200000000     0.259510000000     0          
O848     O      0.759510000000     0.697200000000     0.759510000000     0          
O849     O      0.259510000000     0.802800000000     0.740490000000     0          
O850     O      0.759510000000     0.302800000000     0.240490000000     0          
O851     O      0.740490000000     0.197200000000     0.740490000000     0          
O852     O      0.240490000000     0.697200000000     0.240490000000     0          
O853     O      0.259510000000     0.740490000000     0.802800000000     0          
O854     O      0.759510000000     0.240490000000     0.302800000000     0          
O855     O      0.259510000000     0.259510000000     0.197200000000     0          
O856     O      0.759510000000     0.759510000000     0.697200000000     0          
O857     O      0.740490000000     0.259510000000     0.802800000000     0          
O858     O      0.240490000000     0.759510000000     0.302800000000     0          
O859     O      0.740490000000     0.740490000000     0.197200000000     0          
O860     O      0.240490000000     0.240490000000     0.697200000000     0          
O861     O      0.802800000000     0.259510000000     0.740490000000     0          
O862     O      0.302800000000     0.759510000000     0.240490000000     0          
O863     O      0.197200000000     0.259510000000     0.259510000000     0          
O864     O      0.697200000000     0.759510000000     0.759510000000     0          
O865     O      0.802800000000     0.740490000000     0.259510000000     0          
O866     O      0.302800000000     0.240490000000     0.759510000000     0          
O867     O      0.197200000000     0.740490000000     0.740490000000     0          
O868     O      0.697200000000     0.240490000000     0.240490000000     0          
O869     O      0.802800000000     0.740490000000     0.740490000000     0          
O870     O      0.302800000000     0.240490000000     0.240490000000     0          
O871     O      0.197200000000     0.259510000000     0.740490000000     0          
O872     O      0.697200000000     0.759510000000     0.240490000000     0          
O873     O      0.802800000000     0.259510000000     0.259510000000     0          
O874     O      0.302800000000     0.759510000000     0.759510000000     0          
O875     O      0.197200000000     0.740490000000     0.259510000000     0          
O876     O      0.697200000000     0.240490000000     0.759510000000     0          
O877     O      0.740490000000     0.259510000000     0.197200000000     0          
O878     O      0.240490000000     0.759510000000     0.697200000000     0          
O879     O      0.259510000000     0.259510000000     0.802800000000     0          
O880     O      0.759510000000     0.759510000000     0.302800000000     0          
O881     O      0.259510000000     0.740490000000     0.197200000000     0          
O882     O      0.759510000000     0.240490000000     0.697200000000     0          
O883     O      0.740490000000     0.740490000000     0.802800000000     0          
O884     O      0.240490000000     0.240490000000     0.302800000000     0          
O885     O      0.259510000000     0.802800000000     0.259510000000     0          
O886     O      0.759510000000     0.302800000000     0.759510000000     0          
O887     O      0.259510000000     0.197200000000     0.740490000000     0          
O888     O      0.759510000000     0.697200000000     0.240490000000     0          
O889     O      0.740490000000     0.802800000000     0.740490000000     0          
O890     O      0.240490000000     0.302800000000     0.240490000000     0          
O891     O      0.740490000000     0.197200000000     0.259510000000     0          
O892     O      0.240490000000     0.697200000000     0.759510000000     0          
N893     N      0.551950000000     0.000000000000     0.251100000000     0          
N894     N      0.051950000000     0.500000000000     0.751100000000     0          
N895     N      0.448050000000     0.000000000000     0.251100000000     0          
N896     N      0.948050000000     0.500000000000     0.751100000000     0          
N897     N      0.448050000000     0.000000000000     0.748900000000     0          
N898     N      0.948050000000     0.500000000000     0.248900000000     0          
N899     N      0.551950000000     0.000000000000     0.748900000000     0          
N900     N      0.051950000000     0.500000000000     0.248900000000     0          
N901     N      0.251100000000     0.551950000000     0.000000000000     0          
N902     N      0.751100000000     0.051950000000     0.500000000000     0          
N903     N      0.251100000000     0.448050000000     0.000000000000     0          
N904     N      0.751100000000     0.948050000000     0.500000000000     0          
N905     N      0.748900000000     0.448050000000     0.000000000000     0          
N906     N      0.248900000000     0.948050000000     0.500000000000     0          
N907     N      0.748900000000     0.551950000000     0.000000000000     0          
N908     N      0.248900000000     0.051950000000     0.500000000000     0          
N909     N      0.000000000000     0.251100000000     0.551950000000     0          
N910     N      0.500000000000     0.751100000000     0.051950000000     0          
N911     N      0.000000000000     0.251100000000     0.448050000000     0          
N912     N      0.500000000000     0.751100000000     0.948050000000     0          
N913     N      0.000000000000     0.748900000000     0.448050000000     0          
N914     N      0.500000000000     0.248900000000     0.948050000000     0          
N915     N      0.000000000000     0.748900000000     0.551950000000     0          
N916     N      0.500000000000     0.248900000000     0.051950000000     0          
N917     N      0.000000000000     0.551950000000     0.748900000000     0          
N918     N      0.500000000000     0.051950000000     0.248900000000     0          
N919     N      0.000000000000     0.448050000000     0.748900000000     0          
N920     N      0.500000000000     0.948050000000     0.248900000000     0          
N921     N      0.000000000000     0.448050000000     0.251100000000     0          
N922     N      0.500000000000     0.948050000000     0.751100000000     0          
N923     N      0.000000000000     0.551950000000     0.251100000000     0          
N924     N      0.500000000000     0.051950000000     0.751100000000     0          
N925     N      0.551950000000     0.251100000000     0.000000000000     0          
N926     N      0.051950000000     0.751100000000     0.500000000000     0          
N927     N      0.448050000000     0.251100000000     0.000000000000     0          
N928     N      0.948050000000     0.751100000000     0.500000000000     0          
N929     N      0.448050000000     0.748900000000     0.000000000000     0          
N930     N      0.948050000000     0.248900000000     0.500000000000     0          
N931     N      0.551950000000     0.748900000000     0.000000000000     0          
N932     N      0.051950000000     0.248900000000     0.500000000000     0          
N933     N      0.251100000000     0.000000000000     0.448050000000     0          
N934     N      0.751100000000     0.500000000000     0.948050000000     0          
N935     N      0.251100000000     0.000000000000     0.551950000000     0          
N936     N      0.751100000000     0.500000000000     0.051950000000     0          
N937     N      0.748900000000     0.000000000000     0.551950000000     0          
N938     N      0.248900000000     0.500000000000     0.051950000000     0          
N939     N      0.748900000000     0.000000000000     0.448050000000     0          
N940     N      0.248900000000     0.500000000000     0.948050000000     0          
C941     C      0.669120000000     0.830880000000     0.250000000000     0          
C942     C      0.641560000000     0.858440000000     0.250000000000     0          
C943     C      0.590530000000     0.909470000000     0.250000000000     0          
C944     C      0.563240000000     0.936760000000     0.250000000000     0          
C945     C      0.330880000000     0.169120000000     0.250000000000     0          
C946     C      0.358440000000     0.141560000000     0.250000000000     0          
C947     C      0.409470000000     0.090530000000     0.250000000000     0          
C948     C      0.436760000000     0.063240000000     0.250000000000     0          
C949     C      0.330880000000     0.830880000000     0.750000000000     0          
C950     C      0.358440000000     0.858440000000     0.750000000000     0          
C951     C      0.409470000000     0.909470000000     0.750000000000     0          
C952     C      0.436760000000     0.936760000000     0.750000000000     0          
C953     C      0.669120000000     0.169120000000     0.750000000000     0          
C954     C      0.641560000000     0.141560000000     0.750000000000     0          
C955     C      0.590530000000     0.090530000000     0.750000000000     0          
C956     C      0.563240000000     0.063240000000     0.750000000000     0          
C957     C      0.250000000000     0.669120000000     0.830880000000     0          
C958     C      0.250000000000     0.641560000000     0.858440000000     0          
C959     C      0.250000000000     0.590530000000     0.909470000000     0          
C960     C      0.250000000000     0.563240000000     0.936760000000     0          
C961     C      0.250000000000     0.330880000000     0.169120000000     0          
C962     C      0.250000000000     0.358440000000     0.141560000000     0          
C963     C      0.250000000000     0.409470000000     0.090530000000     0          
C964     C      0.250000000000     0.436760000000     0.063240000000     0          
C965     C      0.750000000000     0.330880000000     0.830880000000     0          
C966     C      0.750000000000     0.358440000000     0.858440000000     0          
C967     C      0.750000000000     0.409470000000     0.909470000000     0          
C968     C      0.750000000000     0.436760000000     0.936760000000     0          
C969     C      0.750000000000     0.669120000000     0.169120000000     0          
C970     C      0.750000000000     0.641560000000     0.141560000000     0          
C971     C      0.750000000000     0.590530000000     0.090530000000     0          
C972     C      0.750000000000     0.563240000000     0.063240000000     0          
C973     C      0.830880000000     0.250000000000     0.669120000000     0          
C974     C      0.858440000000     0.250000000000     0.641560000000     0          
C975     C      0.909470000000     0.250000000000     0.590530000000     0          
C976     C      0.936760000000     0.250000000000     0.563240000000     0          
C977     C      0.169120000000     0.250000000000     0.330880000000     0          
C978     C      0.141560000000     0.250000000000     0.358440000000     0          
C979     C      0.090530000000     0.250000000000     0.409470000000     0          
C980     C      0.063240000000     0.250000000000     0.436760000000     0          
C981     C      0.830880000000     0.750000000000     0.330880000000     0          
C982     C      0.858440000000     0.750000000000     0.358440000000     0          
C983     C      0.909470000000     0.750000000000     0.409470000000     0          
C984     C      0.936760000000     0.750000000000     0.436760000000     0          
C985     C      0.169120000000     0.750000000000     0.669120000000     0          
C986     C      0.141560000000     0.750000000000     0.641560000000     0          
C987     C      0.090530000000     0.750000000000     0.590530000000     0          
C988     C      0.063240000000     0.750000000000     0.563240000000     0          
C989     C      0.830880000000     0.669120000000     0.750000000000     0          
C990     C      0.858440000000     0.641560000000     0.750000000000     0          
C991     C      0.909470000000     0.590530000000     0.750000000000     0          
C992     C      0.936760000000     0.563240000000     0.750000000000     0          
C993     C      0.169120000000     0.330880000000     0.750000000000     0          
C994     C      0.141560000000     0.358440000000     0.750000000000     0          
C995     C      0.090530000000     0.409470000000     0.750000000000     0          
C996     C      0.063240000000     0.436760000000     0.750000000000     0          
C997     C      0.830880000000     0.330880000000     0.250000000000     0          
C998     C      0.858440000000     0.358440000000     0.250000000000     0          
C999     C      0.909470000000     0.409470000000     0.250000000000     0          
C1000    C      0.936760000000     0.436760000000     0.250000000000     0          
C1001    C      0.169120000000     0.669120000000     0.250000000000     0          
C1002    C      0.141560000000     0.641560000000     0.250000000000     0          
C1003    C      0.090530000000     0.590530000000     0.250000000000     0          
C1004    C      0.063240000000     0.563240000000     0.250000000000     0          
C1005    C      0.669120000000     0.250000000000     0.169120000000     0          
C1006    C      0.641560000000     0.250000000000     0.141560000000     0          
C1007    C      0.590530000000     0.250000000000     0.090530000000     0          
C1008    C      0.563240000000     0.250000000000     0.063240000000     0          
C1009    C      0.330880000000     0.250000000000     0.830880000000     0          
C1010    C      0.358440000000     0.250000000000     0.858440000000     0          
C1011    C      0.409470000000     0.250000000000     0.909470000000     0          
C1012    C      0.436760000000     0.250000000000     0.936760000000     0          
C1013    C      0.330880000000     0.750000000000     0.169120000000     0          
C1014    C      0.358440000000     0.750000000000     0.141560000000     0          
C1015    C      0.409470000000     0.750000000000     0.090530000000     0          
C1016    C      0.436760000000     0.750000000000     0.063240000000     0          
C1017    C      0.669120000000     0.750000000000     0.830880000000     0          
C1018    C      0.641560000000     0.750000000000     0.858440000000     0          
C1019    C      0.590530000000     0.750000000000     0.909470000000     0          
C1020    C      0.563240000000     0.750000000000     0.936760000000     0          
C1021    C      0.250000000000     0.830880000000     0.330880000000     0          
C1022    C      0.250000000000     0.858440000000     0.358440000000     0          
C1023    C      0.250000000000     0.909470000000     0.409470000000     0          
C1024    C      0.250000000000     0.936760000000     0.436760000000     0          
C1025    C      0.250000000000     0.169120000000     0.669120000000     0          
C1026    C      0.250000000000     0.141560000000     0.641560000000     0          
C1027    C      0.250000000000     0.090530000000     0.590530000000     0          
C1028    C      0.250000000000     0.063240000000     0.563240000000     0          
C1029    C      0.750000000000     0.830880000000     0.669120000000     0          
C1030    C      0.750000000000     0.858440000000     0.641560000000     0          
C1031    C      0.750000000000     0.909470000000     0.590530000000     0          
C1032    C      0.750000000000     0.936760000000     0.563240000000     0          
C1033    C      0.750000000000     0.169120000000     0.330880000000     0          
C1034    C      0.750000000000     0.141560000000     0.358440000000     0          
C1035    C      0.750000000000     0.090530000000     0.409470000000     0          
C1036    C      0.750000000000     0.063240000000     0.436760000000     0          
C1037    C      0.330880000000     0.169120000000     0.750000000000     0          
C1038    C      0.358440000000     0.141560000000     0.750000000000     0          
C1039    C      0.409470000000     0.090530000000     0.750000000000     0          
C1040    C      0.436760000000     0.063240000000     0.750000000000     0          
C1041    C      0.830880000000     0.669120000000     0.250000000000     0          
C1042    C      0.858440000000     0.641560000000     0.250000000000     0          
C1043    C      0.909470000000     0.590530000000     0.250000000000     0          
C1044    C      0.936760000000     0.563240000000     0.250000000000     0          
C1045    C      0.669120000000     0.830880000000     0.750000000000     0          
C1046    C      0.641560000000     0.858440000000     0.750000000000     0          
C1047    C      0.590530000000     0.909470000000     0.750000000000     0          
C1048    C      0.563240000000     0.936760000000     0.750000000000     0          
C1049    C      0.669120000000     0.169120000000     0.250000000000     0          
C1050    C      0.641560000000     0.141560000000     0.250000000000     0          
C1051    C      0.590530000000     0.090530000000     0.250000000000     0          
C1052    C      0.563240000000     0.063240000000     0.250000000000     0          
C1053    C      0.330880000000     0.830880000000     0.250000000000     0          
C1054    C      0.358440000000     0.858440000000     0.250000000000     0          
C1055    C      0.409470000000     0.909470000000     0.250000000000     0          
C1056    C      0.436760000000     0.936760000000     0.250000000000     0          
C1057    C      0.750000000000     0.330880000000     0.169120000000     0          
C1058    C      0.750000000000     0.358440000000     0.141560000000     0          
C1059    C      0.750000000000     0.409470000000     0.090530000000     0          
C1060    C      0.750000000000     0.436760000000     0.063240000000     0          
C1061    C      0.250000000000     0.830880000000     0.669120000000     0          
C1062    C      0.250000000000     0.858440000000     0.641560000000     0          
C1063    C      0.250000000000     0.909470000000     0.590530000000     0          
C1064    C      0.250000000000     0.936760000000     0.563240000000     0          
C1065    C      0.750000000000     0.669120000000     0.830880000000     0          
C1066    C      0.750000000000     0.641560000000     0.858440000000     0          
C1067    C      0.750000000000     0.590530000000     0.909470000000     0          
C1068    C      0.750000000000     0.563240000000     0.936760000000     0          
C1069    C      0.250000000000     0.669120000000     0.169120000000     0          
C1070    C      0.250000000000     0.641560000000     0.141560000000     0          
C1071    C      0.250000000000     0.590530000000     0.090530000000     0          
C1072    C      0.250000000000     0.563240000000     0.063240000000     0          
C1073    C      0.250000000000     0.330880000000     0.830880000000     0          
C1074    C      0.250000000000     0.358440000000     0.858440000000     0          
C1075    C      0.250000000000     0.409470000000     0.909470000000     0          
C1076    C      0.250000000000     0.436760000000     0.936760000000     0          
C1077    C      0.169120000000     0.750000000000     0.330880000000     0          
C1078    C      0.141560000000     0.750000000000     0.358440000000     0          
C1079    C      0.090530000000     0.750000000000     0.409470000000     0          
C1080    C      0.063240000000     0.750000000000     0.436760000000     0          
C1081    C      0.669120000000     0.250000000000     0.830880000000     0          
C1082    C      0.641560000000     0.250000000000     0.858440000000     0          
C1083    C      0.590530000000     0.250000000000     0.909470000000     0          
C1084    C      0.563240000000     0.250000000000     0.936760000000     0          
C1085    C      0.830880000000     0.750000000000     0.669120000000     0          
C1086    C      0.858440000000     0.750000000000     0.641560000000     0          
C1087    C      0.909470000000     0.750000000000     0.590530000000     0          
C1088    C      0.936760000000     0.750000000000     0.563240000000     0          
C1089    C      0.169120000000     0.250000000000     0.669120000000     0          
C1090    C      0.141560000000     0.250000000000     0.641560000000     0          
C1091    C      0.090530000000     0.250000000000     0.590530000000     0          
C1092    C      0.063240000000     0.250000000000     0.563240000000     0          
C1093    C      0.830880000000     0.250000000000     0.330880000000     0          
C1094    C      0.858440000000     0.250000000000     0.358440000000     0          
C1095    C      0.909470000000     0.250000000000     0.409470000000     0          
C1096    C      0.936760000000     0.250000000000     0.436760000000     0          
C1097    C      0.169120000000     0.330880000000     0.250000000000     0          
C1098    C      0.141560000000     0.358440000000     0.250000000000     0          
C1099    C      0.090530000000     0.409470000000     0.250000000000     0          
C1100    C      0.063240000000     0.436760000000     0.250000000000     0          
C1101    C      0.169120000000     0.669120000000     0.750000000000     0          
C1102    C      0.141560000000     0.641560000000     0.750000000000     0          
C1103    C      0.090530000000     0.590530000000     0.750000000000     0          
C1104    C      0.063240000000     0.563240000000     0.750000000000     0          
C1105    C      0.830880000000     0.330880000000     0.750000000000     0          
C1106    C      0.858440000000     0.358440000000     0.750000000000     0          
C1107    C      0.909470000000     0.409470000000     0.750000000000     0          
C1108    C      0.936760000000     0.436760000000     0.750000000000     0          
C1109    C      0.330880000000     0.750000000000     0.830880000000     0          
C1110    C      0.358440000000     0.750000000000     0.858440000000     0          
C1111    C      0.409470000000     0.750000000000     0.909470000000     0          
C1112    C      0.436760000000     0.750000000000     0.936760000000     0          
C1113    C      0.669120000000     0.750000000000     0.169120000000     0          
C1114    C      0.641560000000     0.750000000000     0.141560000000     0          
C1115    C      0.590530000000     0.750000000000     0.090530000000     0          
C1116    C      0.563240000000     0.750000000000     0.063240000000     0          
C1117    C      0.330880000000     0.250000000000     0.169120000000     0          
C1118    C      0.358440000000     0.250000000000     0.141560000000     0          
C1119    C      0.409470000000     0.250000000000     0.090530000000     0          
C1120    C      0.436760000000     0.250000000000     0.063240000000     0          
C1121    C      0.750000000000     0.169120000000     0.669120000000     0          
C1122    C      0.750000000000     0.141560000000     0.641560000000     0          
C1123    C      0.750000000000     0.090530000000     0.590530000000     0          
C1124    C      0.750000000000     0.063240000000     0.563240000000     0          
C1125    C      0.750000000000     0.830880000000     0.330880000000     0          
C1126    C      0.750000000000     0.858440000000     0.358440000000     0          
C1127    C      0.750000000000     0.909470000000     0.409470000000     0          
C1128    C      0.750000000000     0.936760000000     0.436760000000     0          
C1129    C      0.250000000000     0.169120000000     0.330880000000     0          
C1130    C      0.250000000000     0.141560000000     0.358440000000     0          
C1131    C      0.250000000000     0.090530000000     0.409470000000     0          
C1132    C      0.250000000000     0.063240000000     0.436760000000     0          
Cl1133   Cl     0.000000000000     0.500000000000     0.812490000000     0          
Cl1134   Cl     0.812490000000     0.000000000000     0.500000000000     0          
Cl1135   Cl     0.687510000000     0.500000000000     0.000000000000     0          
Cl1136   Cl     0.187510000000     0.000000000000     0.500000000000     0          
Cl1137   Cl     0.000000000000     0.687510000000     0.500000000000     0          
Cl1138   Cl     0.500000000000     0.000000000000     0.187510000000     0          
Cl1139   Cl     0.000000000000     0.500000000000     0.312490000000     0          
Cl1140   Cl     0.500000000000     0.000000000000     0.812490000000     0          
Cl1141   Cl     0.500000000000     0.312490000000     0.000000000000     0          
Cl1142   Cl     0.500000000000     0.687510000000     0.000000000000     0          
Cl1143   Cl     0.000000000000     0.187510000000     0.500000000000     0          
Cl1144   Cl     0.187510000000     0.500000000000     0.000000000000     0          


