data_JOGZIR

_audit_creation_method RASPA-1.0
_audit_creation_date 2020-11-2
_audit_author_name 'Rocio Bueno-Perez'

_cell_length_a    38.1622
_cell_length_b    38.1622
_cell_length_c    45.5859
_cell_angle_alpha 90
_cell_angle_beta  90
_cell_angle_gamma 120
_cell_volume      57494.7

_symmetry_cell_setting          hexagonal
_symmetry_space_group_name_Hall 'P 1'
_symmetry_space_group_name_H-M  'P 1'
_symmetry_Int_Tables_number     1

_symmetry_equiv_pos_as_xyz 'x,y,z'

loop_
_atom_site_label
_atom_site_type_symbol
_atom_site_fract_x
_atom_site_fract_y
_atom_site_fract_z
_atom_site_charge
C1       C      0.650500000000     0.101200000000     0.266100000000     0          
C2       C      0.660000000000     0.137900000000     0.253200000000     0          
H1       H      0.642100000000     0.147700000000     0.254700000000     0          
C3       C      0.696300000000     0.160100000000     0.238100000000     0          
H2       H      0.702700000000     0.184700000000     0.229600000000     0          
C4       C      0.723000000000     0.145500000000     0.235900000000     0          
C5       C      0.713500000000     0.108700000000     0.248700000000     0          
H3       H      0.731400000000     0.098900000000     0.247300000000     0          
C6       C      0.677300000000     0.086600000000     0.263800000000     0          
H4       H      0.670900000000     0.062000000000     0.272400000000     0          
C7       C      0.763500000000     0.173100000000     0.221700000000     0          
C8       C      0.777600000000     0.157900000000     0.199900000000     0          
C9       C      0.816900000000     0.181100000000     0.189400000000     0          
C10      C      0.842100000000     0.219500000000     0.200900000000     0          
C11      C      0.828000000000     0.234600000000     0.222800000000     0          
C12      C      0.788700000000     0.211500000000     0.233200000000     0          
H5       H      0.779300000000     0.221600000000     0.247800000000     0          
C13      C      0.868300000000     0.153400000000     0.130000000000     0          
C14      C      0.891100000000     0.163500000000     0.104500000000     0          
C15      C      0.901000000000     0.199200000000     0.089800000000     0          
H6       H      0.916300000000     0.206000000000     0.072700000000     0          
C16      C      0.887900000000     0.224800000000     0.100700000000     0          
C17      C      0.865000000000     0.214600000000     0.126200000000     0          
C18      C      0.855200000000     0.179000000000     0.140900000000     0          
C19      C      0.904900000000     0.135400000000     0.092300000000     0          
C20      C      0.877900000000     0.096800000000     0.082200000000     0          
H7       H      0.850300000000     0.085900000000     0.085200000000     0          
C21      C      0.892200000000     0.074300000000     0.067700000000     0          
H8       H      0.874100000000     0.048500000000     0.061000000000     0          
C22      C      0.933500000000     0.090600000000     0.063300000000     0          
C23      C      0.960500000000     0.129300000000     0.073400000000     0          
H9       H      0.988100000000     0.140100000000     0.070500000000     0          
C24      C      0.946200000000     0.151700000000     0.087900000000     0          
H10      H      0.964300000000     0.177600000000     0.094700000000     0          
C25      C      0.853900000000     0.275600000000     0.236600000000     0          
C26      C      0.891700000000     0.286500000000     0.248300000000     0          
H11      H      0.902300000000     0.269500000000     0.246100000000     0          
C27      C      0.913400000000     0.323000000000     0.263200000000     0          
H12      H      0.938700000000     0.330300000000     0.271100000000     0          
C28      C      0.897500000000     0.348500000000     0.266500000000     0          
C29      C      0.859700000000     0.337500000000     0.254700000000     0          
H13      H      0.849100000000     0.354600000000     0.256900000000     0          
C30      C      0.838000000000     0.301100000000     0.239800000000     0          
H14      H      0.812700000000     0.293800000000     0.231900000000     0          
C31      C      0.904100000000     0.267100000000     0.087400000000     0          
C32      C      0.943300000000     0.287900000000     0.076400000000     0          
H15      H      0.960000000000     0.276700000000     0.077900000000     0          
C33      C      0.957500000000     0.325300000000     0.063000000000     0          
H16      H      0.983700000000     0.339300000000     0.055700000000     0          
C34      C      0.932500000000     0.342000000000     0.060700000000     0          
C35      C      0.893300000000     0.321200000000     0.071700000000     0          
H17      H      0.876600000000     0.332300000000     0.070100000000     0          
C36      C      0.879100000000     0.283700000000     0.085000000000     0          
H18      H      0.852900000000     0.269800000000     0.092400000000     0          
C37      C      0.156900000000     0.091400000000     0.062000000000     0          
C38      C      0.182600000000     0.075800000000     0.065800000000     0          
H19      H      0.175100000000     0.050000000000     0.059000000000     0          
C39      C      0.219700000000     0.098800000000     0.079800000000     0          
H20      H      0.236900000000     0.088300000000     0.082300000000     0          
C40      C      0.231000000000     0.137300000000     0.089900000000     0          
C41      C      0.205200000000     0.152900000000     0.086200000000     0          
H21      H      0.212800000000     0.178700000000     0.093000000000     0          
C42      C      0.168200000000     0.130000000000     0.072200000000     0          
H22      H      0.151000000000     0.140400000000     0.069700000000     0          
C43      C      0.273800000000     0.164700000000     0.103000000000     0          
C44      C      0.297500000000     0.203500000000     0.091800000000     0          
H23      H      0.289200000000     0.211500000000     0.075200000000     0          
C45      C      0.333700000000     0.230400000000     0.105400000000     0          
C46      C      0.346200000000     0.218500000000     0.130300000000     0          
C47      C      0.322500000000     0.179700000000     0.141500000000     0          
C48      C      0.286200000000     0.152800000000     0.127800000000     0          
C49      C      0.360800000000     0.270600000000     0.091000000000     0          
C50      C      0.402500000000     0.287400000000     0.089800000000     0          
H24      H      0.414600000000     0.273700000000     0.097800000000     0          
C51      C      0.426200000000     0.324800000000     0.076400000000     0          
H25      H      0.454200000000     0.336100000000     0.075600000000     0          
C52      C      0.408200000000     0.345300000000     0.064400000000     0          
C53      C      0.366400000000     0.328500000000     0.065600000000     0          
H26      H      0.354300000000     0.342200000000     0.057500000000     0          
C54      C      0.342700000000     0.291100000000     0.078900000000     0          
H27      H      0.314700000000     0.279800000000     0.079800000000     0          
C55      C      0.952500000000     0.383800000000     0.046400000000     0          
C56      C      0.920000000000     0.385900000000     0.285200000000     0          
C57      C      0.613600000000     0.079500000000     0.284100000000     0          
C58      C      0.753900000000     0.119200000000     0.181300000000     0          
H28      H      0.751900000000     0.095700000000     0.191100000000     0          
H29      H      0.727000000000     0.114100000000     0.176400000000     0          
C59      C      0.780200000000     0.130500000000     0.154900000000     0          
H30      H      0.773200000000     0.145300000000     0.141100000000     0          
H31      H      0.777300000000     0.106500000000     0.145300000000     0          
C60      C      0.825300000000     0.158000000000     0.166400000000     0          
C61      C      0.843600000000     0.132500000000     0.177800000000     0          
H32      H      0.866100000000     0.148400000000     0.190900000000     0          
H33      H      0.823400000000     0.108900000000     0.188200000000     0          
C62      C      0.858100000000     0.119900000000     0.150700000000     0          
H34      H      0.881700000000     0.117500000000     0.155100000000     0          
H35      H      0.836900000000     0.094400000000     0.142800000000     0          
C63      C      0.949400000000     0.066100000000     0.050500000000     0          
C64      C      0.119400000000     0.067600000000     0.047500000000     0          
C66      C      0.371400000000     0.156600000000     0.156000000000     0          
H36      H      0.396000000000     0.178200000000     0.147400000000     0          
H37      H      0.357700000000     0.135500000000     0.141500000000     0          
C67      C      0.380900000000     0.240900000000     0.149900000000     0          
H38      H      0.384100000000     0.267100000000     0.154700000000     0          
H39      H      0.405500000000     0.244900000000     0.140700000000     0          
C68      C      0.428900000000     0.385500000000     0.048100000000     0          
O1       O      0.994400000000     0.527000000000     0.040300000000     0          
O2       O      0.942200000000     0.492300000000     0.000000000000     0          
O5       O      0.953200000000     0.439900000000     0.999900000000     0          
O6       O      0.934800000000     0.405500000000     0.053200000000     0          
O7       O      0.979400000000     0.392400000000     0.027200000000     0          
O8       O      0.926500000000     0.291600000000     0.153200000000     0          
O9       O      0.863900000000     0.297100000000     0.170300000000     0          
O10      O      0.852000000000     0.240600000000     0.138300000000     0          
O11      O      0.879500000000     0.242200000000     0.190200000000     0          
O12      O      0.943700000000     0.385300000000     0.304100000000     0          
O13      O      0.915900000000     0.415400000000     0.278700000000     0          
O14      O      0.583300000000     0.082900000000     0.278800000000     0          
O15      O      0.615000000000     0.056900000000     0.305100000000     0          
O16      O      0.925700000000     0.040600000000     0.031400000000     0          
O17      O      0.984900000000     0.074900000000     0.053300000000     0          
O18      O      0.970100000000     0.999800000000     0.038900000000     0          
O19      O      0.995900000000     0.053700000000     0.999800000000     0          
O22      O      0.091500000000     0.075900000000     0.053000000000     0          
O23      O      0.114600000000     0.039800000000     0.029600000000     0          
O24      O      0.207500000000     0.135300000000     0.156200000000     0          
O25      O      0.259600000000     0.115700000000     0.142100000000     0          
O26      O      0.412000000000     0.391900000000     0.029700000000     0          
O27      O      0.468200000000     0.404700000000     0.053300000000     0          
O28      O      0.464500000000     0.471000000000     0.038700000000     0          
P2       P      0.884270000000     0.272600000000     0.161980000000     0          
Zr1      Zr     0.026890000000     0.053570000000     0.038680000000     0          
Zr3      Zr     0.946850000000     0.465740000000     0.038990000000     0          
Zr4      Zr     0.431200000000     0.443320000000     0.999810000000     0          
Zr5      Zr     0.518700000000     0.466010000000     0.038710000000     0          
C65      C      0.344500000000     0.172250000000     0.166670000000     0          
P1       P      0.228900000000     0.114450000000     0.166670000000     0          
Zr2      Zr     0.064470000000     0.000000000000     0.000000000000     0          
C1       C      0.549300000000     0.650500000000     0.599433333333     0          
C2       C      0.522100000000     0.660000000000     0.586533333333     0          
H1       H      0.494400000000     0.642100000000     0.588033333333     0          
C3       C      0.536200000000     0.696300000000     0.571433333333     0          
H2       H      0.518000000000     0.702700000000     0.562933333333     0          
C4       C      0.577500000000     0.723000000000     0.569233333333     0          
C5       C      0.604800000000     0.713500000000     0.582033333333     0          
H3       H      0.632500000000     0.731400000000     0.580633333333     0          
C6       C      0.590700000000     0.677300000000     0.597133333333     0          
H4       H      0.608900000000     0.670900000000     0.605733333333     0          
C7       C      0.590400000000     0.763500000000     0.555033333333     0          
C8       C      0.619700000000     0.777600000000     0.533233333333     0          
C9       C      0.635800000000     0.816900000000     0.522733333333     0          
C10      C      0.622600000000     0.842100000000     0.534233333333     0          
C11      C      0.593400000000     0.828000000000     0.556133333333     0          
C12      C      0.577200000000     0.788700000000     0.566533333333     0          
H5       H      0.557700000000     0.779300000000     0.581133333333     0          
C13      C      0.714900000000     0.868300000000     0.463333333333     0          
C14      C      0.727600000000     0.891100000000     0.437833333333     0          
C15      C      0.701800000000     0.901000000000     0.423133333333     0          
H6       H      0.710300000000     0.916300000000     0.406033333333     0          
C16      C      0.663100000000     0.887900000000     0.434033333333     0          
C17      C      0.650400000000     0.865000000000     0.459533333333     0          
C18      C      0.676200000000     0.855200000000     0.474233333333     0          
C19      C      0.769500000000     0.904900000000     0.425633333333     0          
C20      C      0.781100000000     0.877900000000     0.415533333333     0          
H7       H      0.764400000000     0.850300000000     0.418533333333     0          
C21      C      0.817900000000     0.892200000000     0.401033333333     0          
H8       H      0.825600000000     0.874100000000     0.394333333333     0          
C22      C      0.842900000000     0.933500000000     0.396633333333     0          
C23      C      0.831200000000     0.960500000000     0.406733333333     0          
H9       H      0.848000000000     0.988100000000     0.403833333333     0          
C24      C      0.794500000000     0.946200000000     0.421233333333     0          
H10      H      0.786700000000     0.964300000000     0.428033333333     0          
C25      C      0.578300000000     0.853900000000     0.569933333333     0          
C26      C      0.605200000000     0.891700000000     0.581633333333     0          
H11      H      0.632800000000     0.902300000000     0.579433333333     0          
C27      C      0.590400000000     0.913400000000     0.596533333333     0          
H12      H      0.608400000000     0.938700000000     0.604433333333     0          
C28      C      0.549000000000     0.897500000000     0.599833333333     0          
C29      C      0.522200000000     0.859700000000     0.588033333333     0          
H13      H      0.494500000000     0.849100000000     0.590233333333     0          
C30      C      0.536900000000     0.838000000000     0.573133333333     0          
H14      H      0.518900000000     0.812700000000     0.565233333333     0          
C31      C      0.637000000000     0.904100000000     0.420733333333     0          
C32      C      0.655400000000     0.943300000000     0.409733333333     0          
H15      H      0.683300000000     0.960000000000     0.411233333333     0          
C33      C      0.632200000000     0.957500000000     0.396333333333     0          
H16      H      0.644400000000     0.983700000000     0.389033333333     0          
C34      C      0.590500000000     0.932500000000     0.394033333333     0          
C35      C      0.572100000000     0.893300000000     0.405033333333     0          
H17      H      0.544300000000     0.876600000000     0.403433333333     0          
C36      C      0.595400000000     0.879100000000     0.418333333333     0          
H18      H      0.583100000000     0.852900000000     0.425733333333     0          
C37      C      0.065500000000     0.156900000000     0.395333333333     0          
C38      C      0.106800000000     0.182600000000     0.399133333333     0          
H19      H      0.125100000000     0.175100000000     0.392333333333     0          
C39      C      0.120900000000     0.219700000000     0.413133333333     0          
H20      H      0.148600000000     0.236900000000     0.415633333333     0          
C40      C      0.093700000000     0.231000000000     0.423233333333     0          
C41      C      0.052300000000     0.205200000000     0.419533333333     0          
H21      H      0.034100000000     0.212800000000     0.426333333333     0          
C42      C      0.038200000000     0.168200000000     0.405533333333     0          
H22      H      0.010600000000     0.151000000000     0.403033333333     0          
C43      C      0.109100000000     0.273800000000     0.436333333333     0          
C44      C      0.094000000000     0.297500000000     0.425133333333     0          
H23      H      0.077700000000     0.289200000000     0.408533333333     0          
C45      C      0.103300000000     0.333700000000     0.438733333333     0          
C46      C      0.127700000000     0.346200000000     0.463633333333     0          
C47      C      0.142800000000     0.322500000000     0.474833333333     0          
C48      C      0.133400000000     0.286200000000     0.461133333333     0          
C49      C      0.090200000000     0.360800000000     0.424333333333     0          
C50      C      0.115100000000     0.402500000000     0.423133333333     0          
H24      H      0.140900000000     0.414600000000     0.431133333333     0          
C51      C      0.101400000000     0.426200000000     0.409733333333     0          
H25      H      0.118100000000     0.454200000000     0.408933333333     0          
C52      C      0.062900000000     0.408200000000     0.397733333333     0          
C53      C      0.037900000000     0.366400000000     0.398933333333     0          
H26      H      0.012100000000     0.354300000000     0.390833333333     0          
C54      C      0.051600000000     0.342700000000     0.412233333333     0          
H27      H      0.034900000000     0.314700000000     0.413133333333     0          
C55      C      0.568700000000     0.952500000000     0.379733333333     0          
C56      C      0.534100000000     0.920000000000     0.618533333333     0          
C57      C      0.534100000000     0.613600000000     0.617433333333     0          
C58      C      0.634700000000     0.753900000000     0.514633333333     0          
H28      H      0.656200000000     0.751900000000     0.524433333333     0          
H29      H      0.612900000000     0.727000000000     0.509733333333     0          
C59      C      0.649700000000     0.780200000000     0.488233333333     0          
H30      H      0.627900000000     0.773200000000     0.474433333333     0          
H31      H      0.670800000000     0.777300000000     0.478633333333     0          
C60      C      0.667300000000     0.825300000000     0.499733333333     0          
C61      C      0.711100000000     0.843600000000     0.511133333333     0          
H32      H      0.717700000000     0.866100000000     0.524233333333     0          
H33      H      0.714500000000     0.823400000000     0.521533333333     0          
C62      C      0.738200000000     0.858100000000     0.484033333333     0          
H34      H      0.764200000000     0.881700000000     0.488433333333     0          
H35      H      0.742500000000     0.836900000000     0.476133333333     0          
C63      C      0.883300000000     0.949400000000     0.383833333333     0          
C64      C      0.051800000000     0.119400000000     0.380833333333     0          
C66      C      0.214800000000     0.371400000000     0.489333333333     0          
H36      H      0.217800000000     0.396000000000     0.480733333333     0          
H37      H      0.222200000000     0.357700000000     0.474833333333     0          
C67      C      0.140000000000     0.380900000000     0.483233333333     0          
H38      H      0.117000000000     0.384100000000     0.488033333333     0          
H39      H      0.160600000000     0.405500000000     0.474033333333     0          
C68      C      0.043400000000     0.428900000000     0.381433333333     0          
O1       O      0.467400000000     0.994400000000     0.373633333333     0          
O2       O      0.449900000000     0.942200000000     0.333333333333     0          
O5       O      0.513300000000     0.953200000000     0.333233333333     0          
O6       O      0.529300000000     0.934800000000     0.386533333333     0          
O7       O      0.587000000000     0.979400000000     0.360533333333     0          
O8       O      0.634900000000     0.926500000000     0.486533333333     0          
O9       O      0.566800000000     0.863900000000     0.503633333333     0          
O10      O      0.611400000000     0.852000000000     0.471633333333     0          
O11      O      0.637300000000     0.879500000000     0.523533333333     0          
O12      O      0.558400000000     0.943700000000     0.637433333333     0          
O13      O      0.500500000000     0.915900000000     0.612033333333     0          
O14      O      0.500400000000     0.583300000000     0.612133333333     0          
O15      O      0.558100000000     0.615000000000     0.638433333333     0          
O16      O      0.885100000000     0.925700000000     0.364733333333     0          
O17      O      0.910000000000     0.984900000000     0.386633333333     0          
O18      O      0.970300000000     0.970100000000     0.372233333333     0          
O19      O      0.942200000000     0.995900000000     0.333133333333     0          
O22      O      0.015600000000     0.091500000000     0.386333333333     0          
O23      O      0.074800000000     0.114600000000     0.362933333333     0          
O24      O      0.072200000000     0.207500000000     0.489533333333     0          
O25      O      0.143900000000     0.259600000000     0.475433333333     0          
O26      O      0.020100000000     0.412000000000     0.363033333333     0          
O27      O      0.063500000000     0.468200000000     0.386633333333     0          
O28      O      0.993500000000     0.464500000000     0.372033333333     0          
P2       P      0.611670000000     0.884270000000     0.495313333333     0          
Zr1      Zr     0.973320000000     0.026890000000     0.372013333333     0          
Zr3      Zr     0.481110000000     0.946850000000     0.372323333333     0          
Zr4      Zr     0.987880000000     0.431200000000     0.333143333333     0          
Zr5      Zr     0.052690000000     0.518700000000     0.372043333333     0          
C65      C      0.172250000000     0.344500000000     0.500003333333     0          
P1       P      0.114450000000     0.228900000000     0.500003333333     0          
Zr2      Zr     0.064470000000     0.064470000000     0.333333333333     0          
C1       C      0.898800000000     0.549300000000     0.932766666667     0          
C2       C      0.862100000000     0.522100000000     0.919866666667     0          
H1       H      0.852300000000     0.494400000000     0.921366666667     0          
C3       C      0.839900000000     0.536200000000     0.904766666667     0          
H2       H      0.815300000000     0.518000000000     0.896266666667     0          
C4       C      0.854500000000     0.577500000000     0.902566666667     0          
C5       C      0.891300000000     0.604800000000     0.915366666667     0          
H3       H      0.901100000000     0.632500000000     0.913966666667     0          
C6       C      0.913400000000     0.590700000000     0.930466666667     0          
H4       H      0.938000000000     0.608900000000     0.939066666667     0          
C7       C      0.826900000000     0.590400000000     0.888366666667     0          
C8       C      0.842100000000     0.619700000000     0.866566666667     0          
C9       C      0.818900000000     0.635800000000     0.856066666667     0          
C10      C      0.780500000000     0.622600000000     0.867566666667     0          
C11      C      0.765400000000     0.593400000000     0.889466666667     0          
C12      C      0.788500000000     0.577200000000     0.899866666667     0          
H5       H      0.778400000000     0.557700000000     0.914466666667     0          
C13      C      0.846600000000     0.714900000000     0.796666666667     0          
C14      C      0.836500000000     0.727600000000     0.771166666667     0          
C15      C      0.800800000000     0.701800000000     0.756466666667     0          
H6       H      0.794000000000     0.710300000000     0.739366666667     0          
C16      C      0.775200000000     0.663100000000     0.767366666667     0          
C17      C      0.785400000000     0.650400000000     0.792866666667     0          
C18      C      0.821000000000     0.676200000000     0.807566666667     0          
C19      C      0.864600000000     0.769500000000     0.758966666667     0          
C20      C      0.903200000000     0.781100000000     0.748866666667     0          
H7       H      0.914100000000     0.764400000000     0.751866666667     0          
C21      C      0.925700000000     0.817900000000     0.734366666667     0          
H8       H      0.951500000000     0.825600000000     0.727666666667     0          
C22      C      0.909400000000     0.842900000000     0.729966666667     0          
C23      C      0.870700000000     0.831200000000     0.740066666667     0          
H9       H      0.859900000000     0.848000000000     0.737166666667     0          
C24      C      0.848300000000     0.794500000000     0.754566666667     0          
H10      H      0.822400000000     0.786700000000     0.761366666667     0          
C25      C      0.724400000000     0.578300000000     0.903266666667     0          
C26      C      0.713500000000     0.605200000000     0.914966666667     0          
H11      H      0.730500000000     0.632800000000     0.912766666667     0          
C27      C      0.677000000000     0.590400000000     0.929866666667     0          
H12      H      0.669700000000     0.608400000000     0.937766666667     0          
C28      C      0.651500000000     0.549000000000     0.933166666667     0          
C29      C      0.662500000000     0.522200000000     0.921366666667     0          
H13      H      0.645400000000     0.494500000000     0.923566666667     0          
C30      C      0.698900000000     0.536900000000     0.906466666667     0          
H14      H      0.706200000000     0.518900000000     0.898566666667     0          
C31      C      0.732900000000     0.637000000000     0.754066666667     0          
C32      C      0.712100000000     0.655400000000     0.743066666667     0          
H15      H      0.723300000000     0.683300000000     0.744566666667     0          
C33      C      0.674700000000     0.632200000000     0.729666666667     0          
H16      H      0.660700000000     0.644400000000     0.722366666667     0          
C34      C      0.658000000000     0.590500000000     0.727366666667     0          
C35      C      0.678800000000     0.572100000000     0.738366666667     0          
H17      H      0.667700000000     0.544300000000     0.736766666667     0          
C36      C      0.716300000000     0.595400000000     0.751666666667     0          
H18      H      0.730200000000     0.583100000000     0.759066666667     0          
C37      C      0.908600000000     0.065500000000     0.728666666667     0          
C38      C      0.924200000000     0.106800000000     0.732466666667     0          
H19      H      0.950000000000     0.125100000000     0.725666666667     0          
C39      C      0.901200000000     0.120900000000     0.746466666667     0          
H20      H      0.911700000000     0.148600000000     0.748966666667     0          
C40      C      0.862700000000     0.093700000000     0.756566666667     0          
C41      C      0.847100000000     0.052300000000     0.752866666667     0          
H21      H      0.821300000000     0.034100000000     0.759666666667     0          
C42      C      0.870000000000     0.038200000000     0.738866666667     0          
H22      H      0.859600000000     0.010600000000     0.736366666667     0          
C43      C      0.835300000000     0.109100000000     0.769666666667     0          
C44      C      0.796500000000     0.094000000000     0.758466666667     0          
H23      H      0.788500000000     0.077700000000     0.741866666667     0          
C45      C      0.769600000000     0.103300000000     0.772066666667     0          
C46      C      0.781500000000     0.127700000000     0.796966666667     0          
C47      C      0.820300000000     0.142800000000     0.808166666667     0          
C48      C      0.847200000000     0.133400000000     0.794466666667     0          
C49      C      0.729400000000     0.090200000000     0.757666666667     0          
C50      C      0.712600000000     0.115100000000     0.756466666667     0          
H24      H      0.726300000000     0.140900000000     0.764466666667     0          
C51      C      0.675200000000     0.101400000000     0.743066666667     0          
H25      H      0.663900000000     0.118100000000     0.742266666667     0          
C52      C      0.654700000000     0.062900000000     0.731066666667     0          
C53      C      0.671500000000     0.037900000000     0.732266666667     0          
H26      H      0.657800000000     0.012100000000     0.724166666667     0          
C54      C      0.708900000000     0.051600000000     0.745566666667     0          
H27      H      0.720200000000     0.034900000000     0.746466666667     0          
C55      C      0.616200000000     0.568700000000     0.713066666667     0          
C56      C      0.614100000000     0.534100000000     0.951866666667     0          
C57      C      0.920500000000     0.534100000000     0.950766666667     0          
C58      C      0.880800000000     0.634700000000     0.847966666667     0          
H28      H      0.904300000000     0.656200000000     0.857766666667     0          
H29      H      0.885900000000     0.612900000000     0.843066666667     0          
C59      C      0.869500000000     0.649700000000     0.821566666667     0          
H30      H      0.854700000000     0.627900000000     0.807766666667     0          
H31      H      0.893500000000     0.670800000000     0.811966666667     0          
C60      C      0.842000000000     0.667300000000     0.833066666667     0          
C61      C      0.867500000000     0.711100000000     0.844466666667     0          
H32      H      0.851600000000     0.717700000000     0.857566666667     0          
H33      H      0.891100000000     0.714500000000     0.854866666667     0          
C62      C      0.880100000000     0.738200000000     0.817366666667     0          
H34      H      0.882500000000     0.764200000000     0.821766666667     0          
H35      H      0.905600000000     0.742500000000     0.809466666667     0          
C63      C      0.933900000000     0.883300000000     0.717166666667     0          
C64      C      0.932400000000     0.051800000000     0.714166666667     0          
C66      C      0.843400000000     0.214800000000     0.822666666667     0          
H36      H      0.821800000000     0.217800000000     0.814066666667     0          
H37      H      0.864500000000     0.222200000000     0.808166666667     0          
C67      C      0.759100000000     0.140000000000     0.816566666667     0          
H38      H      0.732900000000     0.117000000000     0.821366666667     0          
H39      H      0.755100000000     0.160600000000     0.807366666667     0          
C68      C      0.614500000000     0.043400000000     0.714766666667     0          
O1       O      0.473000000000     0.467400000000     0.706966666667     0          
O2       O      0.507700000000     0.449900000000     0.666666666667     0          
O5       O      0.560100000000     0.513300000000     0.666566666667     0          
O6       O      0.594500000000     0.529300000000     0.719866666667     0          
O7       O      0.607600000000     0.587000000000     0.693866666667     0          
O8       O      0.708400000000     0.634900000000     0.819866666667     0          
O9       O      0.702900000000     0.566800000000     0.836966666667     0          
O10      O      0.759400000000     0.611400000000     0.804966666667     0          
O11      O      0.757800000000     0.637300000000     0.856866666667     0          
O12      O      0.614700000000     0.558400000000     0.970766666667     0          
O13      O      0.584600000000     0.500500000000     0.945366666667     0          
O14      O      0.917100000000     0.500400000000     0.945466666667     0          
O15      O      0.943100000000     0.558100000000     0.971766666667     0          
O16      O      0.959400000000     0.885100000000     0.698066666667     0          
O17      O      0.925100000000     0.910000000000     0.719966666667     0          
O18      O      0.000200000000     0.970300000000     0.705566666667     0          
O19      O      0.946300000000     0.942200000000     0.666466666667     0          
O22      O      0.924100000000     0.015600000000     0.719666666667     0          
O23      O      0.960200000000     0.074800000000     0.696266666667     0          
O24      O      0.864700000000     0.072200000000     0.822866666667     0          
O25      O      0.884300000000     0.143900000000     0.808766666667     0          
O26      O      0.608100000000     0.020100000000     0.696366666667     0          
O27      O      0.595300000000     0.063500000000     0.719966666667     0          
O28      O      0.529000000000     0.993500000000     0.705366666667     0          
P2       P      0.727400000000     0.611670000000     0.828646666667     0          
Zr1      Zr     0.946430000000     0.973320000000     0.705346666667     0          
Zr3      Zr     0.534260000000     0.481110000000     0.705656666667     0          
Zr4      Zr     0.556680000000     0.987880000000     0.666476666667     0          
Zr5      Zr     0.533990000000     0.052690000000     0.705376666667     0          
C65      C      0.827750000000     0.172250000000     0.833336666667     0          
P1       P      0.885550000000     0.114450000000     0.833336666667     0          
Zr2      Zr     0.000000000000     0.064470000000     0.666666666667     0          
C1       C      0.349500000000     0.898800000000     0.266100000000     0          
C2       C      0.340000000000     0.862100000000     0.253200000000     0          
H1       H      0.357900000000     0.852300000000     0.254700000000     0          
C3       C      0.303700000000     0.839900000000     0.238100000000     0          
H2       H      0.297300000000     0.815300000000     0.229600000000     0          
C4       C      0.277000000000     0.854500000000     0.235900000000     0          
C5       C      0.286500000000     0.891300000000     0.248700000000     0          
H3       H      0.268600000000     0.901100000000     0.247300000000     0          
C6       C      0.322700000000     0.913400000000     0.263800000000     0          
H4       H      0.329100000000     0.938000000000     0.272400000000     0          
C7       C      0.236500000000     0.826900000000     0.221700000000     0          
C8       C      0.222400000000     0.842100000000     0.199900000000     0          
C9       C      0.183100000000     0.818900000000     0.189400000000     0          
C10      C      0.157900000000     0.780500000000     0.200900000000     0          
C11      C      0.172000000000     0.765400000000     0.222800000000     0          
C12      C      0.211300000000     0.788500000000     0.233200000000     0          
H5       H      0.220700000000     0.778400000000     0.247800000000     0          
C13      C      0.131700000000     0.846600000000     0.130000000000     0          
C14      C      0.108900000000     0.836500000000     0.104500000000     0          
C15      C      0.099000000000     0.800800000000     0.089800000000     0          
H6       H      0.083700000000     0.794000000000     0.072700000000     0          
C16      C      0.112100000000     0.775200000000     0.100700000000     0          
C17      C      0.135000000000     0.785400000000     0.126200000000     0          
C18      C      0.144800000000     0.821000000000     0.140900000000     0          
C19      C      0.095100000000     0.864600000000     0.092300000000     0          
C20      C      0.122100000000     0.903200000000     0.082200000000     0          
H7       H      0.149700000000     0.914100000000     0.085200000000     0          
C21      C      0.107800000000     0.925700000000     0.067700000000     0          
H8       H      0.125900000000     0.951500000000     0.061000000000     0          
C22      C      0.066500000000     0.909400000000     0.063300000000     0          
C23      C      0.039500000000     0.870700000000     0.073400000000     0          
H9       H      0.011900000000     0.859900000000     0.070500000000     0          
C24      C      0.053800000000     0.848300000000     0.087900000000     0          
H10      H      0.035700000000     0.822400000000     0.094700000000     0          
C25      C      0.146100000000     0.724400000000     0.236600000000     0          
C26      C      0.108300000000     0.713500000000     0.248300000000     0          
H11      H      0.097700000000     0.730500000000     0.246100000000     0          
C27      C      0.086600000000     0.677000000000     0.263200000000     0          
H12      H      0.061300000000     0.669700000000     0.271100000000     0          
C28      C      0.102500000000     0.651500000000     0.266500000000     0          
C29      C      0.140300000000     0.662500000000     0.254700000000     0          
H13      H      0.150900000000     0.645400000000     0.256900000000     0          
C30      C      0.162000000000     0.698900000000     0.239800000000     0          
H14      H      0.187300000000     0.706200000000     0.231900000000     0          
C31      C      0.095900000000     0.732900000000     0.087400000000     0          
C32      C      0.056700000000     0.712100000000     0.076400000000     0          
H15      H      0.040000000000     0.723300000000     0.077900000000     0          
C33      C      0.042500000000     0.674700000000     0.063000000000     0          
H16      H      0.016300000000     0.660700000000     0.055700000000     0          
C34      C      0.067500000000     0.658000000000     0.060700000000     0          
C35      C      0.106700000000     0.678800000000     0.071700000000     0          
H17      H      0.123400000000     0.667700000000     0.070100000000     0          
C36      C      0.120900000000     0.716300000000     0.085000000000     0          
H18      H      0.147100000000     0.730200000000     0.092400000000     0          
C37      C      0.843100000000     0.908600000000     0.062000000000     0          
C38      C      0.817400000000     0.924200000000     0.065800000000     0          
H19      H      0.824900000000     0.950000000000     0.059000000000     0          
C39      C      0.780300000000     0.901200000000     0.079800000000     0          
H20      H      0.763100000000     0.911700000000     0.082300000000     0          
C40      C      0.769000000000     0.862700000000     0.089900000000     0          
C41      C      0.794800000000     0.847100000000     0.086200000000     0          
H21      H      0.787200000000     0.821300000000     0.093000000000     0          
C42      C      0.831800000000     0.870000000000     0.072200000000     0          
H22      H      0.849000000000     0.859600000000     0.069700000000     0          
C43      C      0.726200000000     0.835300000000     0.103000000000     0          
C44      C      0.702500000000     0.796500000000     0.091800000000     0          
H23      H      0.710800000000     0.788500000000     0.075200000000     0          
C45      C      0.666300000000     0.769600000000     0.105400000000     0          
C46      C      0.653800000000     0.781500000000     0.130300000000     0          
C47      C      0.677500000000     0.820300000000     0.141500000000     0          
C48      C      0.713800000000     0.847200000000     0.127800000000     0          
C49      C      0.639200000000     0.729400000000     0.091000000000     0          
C50      C      0.597500000000     0.712600000000     0.089800000000     0          
H24      H      0.585400000000     0.726300000000     0.097800000000     0          
C51      C      0.573800000000     0.675200000000     0.076400000000     0          
H25      H      0.545800000000     0.663900000000     0.075600000000     0          
C52      C      0.591800000000     0.654700000000     0.064400000000     0          
C53      C      0.633600000000     0.671500000000     0.065600000000     0          
H26      H      0.645700000000     0.657800000000     0.057500000000     0          
C54      C      0.657300000000     0.708900000000     0.078900000000     0          
H27      H      0.685300000000     0.720200000000     0.079800000000     0          
C55      C      0.047500000000     0.616200000000     0.046400000000     0          
C56      C      0.080000000000     0.614100000000     0.285200000000     0          
C57      C      0.386400000000     0.920500000000     0.284100000000     0          
C58      C      0.246100000000     0.880800000000     0.181300000000     0          
H28      H      0.248100000000     0.904300000000     0.191100000000     0          
H29      H      0.273000000000     0.885900000000     0.176400000000     0          
C59      C      0.219800000000     0.869500000000     0.154900000000     0          
H30      H      0.226800000000     0.854700000000     0.141100000000     0          
H31      H      0.222700000000     0.893500000000     0.145300000000     0          
C60      C      0.174700000000     0.842000000000     0.166400000000     0          
C61      C      0.156400000000     0.867500000000     0.177800000000     0          
H32      H      0.133900000000     0.851600000000     0.190900000000     0          
H33      H      0.176600000000     0.891100000000     0.188200000000     0          
C62      C      0.141900000000     0.880100000000     0.150700000000     0          
H34      H      0.118300000000     0.882500000000     0.155100000000     0          
H35      H      0.163100000000     0.905600000000     0.142800000000     0          
C63      C      0.050600000000     0.933900000000     0.050500000000     0          
C64      C      0.880600000000     0.932400000000     0.047500000000     0          
C66      C      0.628600000000     0.843400000000     0.156000000000     0          
H36      H      0.604000000000     0.821800000000     0.147400000000     0          
H37      H      0.642300000000     0.864500000000     0.141500000000     0          
C67      C      0.619100000000     0.759100000000     0.149900000000     0          
H38      H      0.615900000000     0.732900000000     0.154700000000     0          
H39      H      0.594500000000     0.755100000000     0.140700000000     0          
C68      C      0.571100000000     0.614500000000     0.048100000000     0          
O1       O      0.005600000000     0.473000000000     0.040300000000     0          
O2       O      0.057800000000     0.507700000000     0.000000000000     0          
O5       O      0.046800000000     0.560100000000     0.999900000000     0          
O6       O      0.065200000000     0.594500000000     0.053200000000     0          
O7       O      0.020600000000     0.607600000000     0.027200000000     0          
O8       O      0.073500000000     0.708400000000     0.153200000000     0          
O9       O      0.136100000000     0.702900000000     0.170300000000     0          
O10      O      0.148000000000     0.759400000000     0.138300000000     0          
O11      O      0.120500000000     0.757800000000     0.190200000000     0          
O12      O      0.056300000000     0.614700000000     0.304100000000     0          
O13      O      0.084100000000     0.584600000000     0.278700000000     0          
O14      O      0.416700000000     0.917100000000     0.278800000000     0          
O15      O      0.385000000000     0.943100000000     0.305100000000     0          
O16      O      0.074300000000     0.959400000000     0.031400000000     0          
O17      O      0.015100000000     0.925100000000     0.053300000000     0          
O18      O      0.029900000000     0.000200000000     0.038900000000     0          
O19      O      0.004100000000     0.946300000000     0.999800000000     0          
O22      O      0.908500000000     0.924100000000     0.053000000000     0          
O23      O      0.885400000000     0.960200000000     0.029600000000     0          
O24      O      0.792500000000     0.864700000000     0.156200000000     0          
O25      O      0.740400000000     0.884300000000     0.142100000000     0          
O26      O      0.588000000000     0.608100000000     0.029700000000     0          
O27      O      0.531800000000     0.595300000000     0.053300000000     0          
O28      O      0.535500000000     0.529000000000     0.038700000000     0          
P2       P      0.115730000000     0.727400000000     0.161980000000     0          
Zr1      Zr     0.973110000000     0.946430000000     0.038680000000     0          
Zr3      Zr     0.053150000000     0.534260000000     0.038990000000     0          
Zr4      Zr     0.568800000000     0.556680000000     0.999810000000     0          
Zr5      Zr     0.481300000000     0.533990000000     0.038710000000     0          
C65      C      0.655500000000     0.827750000000     0.166670000000     0          
P1       P      0.771100000000     0.885550000000     0.166670000000     0          
Zr2      Zr     0.935530000000     0.000000000000     0.000000000000     0          
C1       C      0.450700000000     0.349500000000     0.599433333333     0          
C2       C      0.477900000000     0.340000000000     0.586533333333     0          
H1       H      0.505600000000     0.357900000000     0.588033333333     0          
C3       C      0.463800000000     0.303700000000     0.571433333333     0          
H2       H      0.482000000000     0.297300000000     0.562933333333     0          
C4       C      0.422500000000     0.277000000000     0.569233333333     0          
C5       C      0.395200000000     0.286500000000     0.582033333333     0          
H3       H      0.367500000000     0.268600000000     0.580633333333     0          
C6       C      0.409300000000     0.322700000000     0.597133333333     0          
H4       H      0.391100000000     0.329100000000     0.605733333333     0          
C7       C      0.409600000000     0.236500000000     0.555033333333     0          
C8       C      0.380300000000     0.222400000000     0.533233333333     0          
C9       C      0.364200000000     0.183100000000     0.522733333333     0          
C10      C      0.377400000000     0.157900000000     0.534233333333     0          
C11      C      0.406600000000     0.172000000000     0.556133333333     0          
C12      C      0.422800000000     0.211300000000     0.566533333333     0          
H5       H      0.442300000000     0.220700000000     0.581133333333     0          
C13      C      0.285100000000     0.131700000000     0.463333333333     0          
C14      C      0.272400000000     0.108900000000     0.437833333333     0          
C15      C      0.298200000000     0.099000000000     0.423133333333     0          
H6       H      0.289700000000     0.083700000000     0.406033333333     0          
C16      C      0.336900000000     0.112100000000     0.434033333333     0          
C17      C      0.349600000000     0.135000000000     0.459533333333     0          
C18      C      0.323800000000     0.144800000000     0.474233333333     0          
C19      C      0.230500000000     0.095100000000     0.425633333333     0          
C20      C      0.218900000000     0.122100000000     0.415533333333     0          
H7       H      0.235600000000     0.149700000000     0.418533333333     0          
C21      C      0.182100000000     0.107800000000     0.401033333333     0          
H8       H      0.174400000000     0.125900000000     0.394333333333     0          
C22      C      0.157100000000     0.066500000000     0.396633333333     0          
C23      C      0.168800000000     0.039500000000     0.406733333333     0          
H9       H      0.152000000000     0.011900000000     0.403833333333     0          
C24      C      0.205500000000     0.053800000000     0.421233333333     0          
H10      H      0.213300000000     0.035700000000     0.428033333333     0          
C25      C      0.421700000000     0.146100000000     0.569933333333     0          
C26      C      0.394800000000     0.108300000000     0.581633333333     0          
H11      H      0.367200000000     0.097700000000     0.579433333333     0          
C27      C      0.409600000000     0.086600000000     0.596533333333     0          
H12      H      0.391600000000     0.061300000000     0.604433333333     0          
C28      C      0.451000000000     0.102500000000     0.599833333333     0          
C29      C      0.477800000000     0.140300000000     0.588033333333     0          
H13      H      0.505500000000     0.150900000000     0.590233333333     0          
C30      C      0.463100000000     0.162000000000     0.573133333333     0          
H14      H      0.481100000000     0.187300000000     0.565233333333     0          
C31      C      0.363000000000     0.095900000000     0.420733333333     0          
C32      C      0.344600000000     0.056700000000     0.409733333333     0          
H15      H      0.316700000000     0.040000000000     0.411233333333     0          
C33      C      0.367800000000     0.042500000000     0.396333333333     0          
H16      H      0.355600000000     0.016300000000     0.389033333333     0          
C34      C      0.409500000000     0.067500000000     0.394033333333     0          
C35      C      0.427900000000     0.106700000000     0.405033333333     0          
H17      H      0.455700000000     0.123400000000     0.403433333333     0          
C36      C      0.404600000000     0.120900000000     0.418333333333     0          
H18      H      0.416900000000     0.147100000000     0.425733333333     0          
C37      C      0.934500000000     0.843100000000     0.395333333333     0          
C38      C      0.893200000000     0.817400000000     0.399133333333     0          
H19      H      0.874900000000     0.824900000000     0.392333333333     0          
C39      C      0.879100000000     0.780300000000     0.413133333333     0          
H20      H      0.851400000000     0.763100000000     0.415633333333     0          
C40      C      0.906300000000     0.769000000000     0.423233333333     0          
C41      C      0.947700000000     0.794800000000     0.419533333333     0          
H21      H      0.965900000000     0.787200000000     0.426333333333     0          
C42      C      0.961800000000     0.831800000000     0.405533333333     0          
H22      H      0.989400000000     0.849000000000     0.403033333333     0          
C43      C      0.890900000000     0.726200000000     0.436333333333     0          
C44      C      0.906000000000     0.702500000000     0.425133333333     0          
H23      H      0.922300000000     0.710800000000     0.408533333333     0          
C45      C      0.896700000000     0.666300000000     0.438733333333     0          
C46      C      0.872300000000     0.653800000000     0.463633333333     0          
C47      C      0.857200000000     0.677500000000     0.474833333333     0          
C48      C      0.866600000000     0.713800000000     0.461133333333     0          
C49      C      0.909800000000     0.639200000000     0.424333333333     0          
C50      C      0.884900000000     0.597500000000     0.423133333333     0          
H24      H      0.859100000000     0.585400000000     0.431133333333     0          
C51      C      0.898600000000     0.573800000000     0.409733333333     0          
H25      H      0.881900000000     0.545800000000     0.408933333333     0          
C52      C      0.937100000000     0.591800000000     0.397733333333     0          
C53      C      0.962100000000     0.633600000000     0.398933333333     0          
H26      H      0.987900000000     0.645700000000     0.390833333333     0          
C54      C      0.948400000000     0.657300000000     0.412233333333     0          
H27      H      0.965100000000     0.685300000000     0.413133333333     0          
C55      C      0.431300000000     0.047500000000     0.379733333333     0          
C56      C      0.465900000000     0.080000000000     0.618533333333     0          
C57      C      0.465900000000     0.386400000000     0.617433333333     0          
C58      C      0.365300000000     0.246100000000     0.514633333333     0          
H28      H      0.343800000000     0.248100000000     0.524433333333     0          
H29      H      0.387100000000     0.273000000000     0.509733333333     0          
C59      C      0.350300000000     0.219800000000     0.488233333333     0          
H30      H      0.372100000000     0.226800000000     0.474433333333     0          
H31      H      0.329200000000     0.222700000000     0.478633333333     0          
C60      C      0.332700000000     0.174700000000     0.499733333333     0          
C61      C      0.288900000000     0.156400000000     0.511133333333     0          
H32      H      0.282300000000     0.133900000000     0.524233333333     0          
H33      H      0.285500000000     0.176600000000     0.521533333333     0          
C62      C      0.261800000000     0.141900000000     0.484033333333     0          
H34      H      0.235800000000     0.118300000000     0.488433333333     0          
H35      H      0.257500000000     0.163100000000     0.476133333333     0          
C63      C      0.116700000000     0.050600000000     0.383833333333     0          
C64      C      0.948200000000     0.880600000000     0.380833333333     0          
C66      C      0.785200000000     0.628600000000     0.489333333333     0          
H36      H      0.782200000000     0.604000000000     0.480733333333     0          
H37      H      0.777800000000     0.642300000000     0.474833333333     0          
C67      C      0.860000000000     0.619100000000     0.483233333333     0          
H38      H      0.883000000000     0.615900000000     0.488033333333     0          
H39      H      0.839400000000     0.594500000000     0.474033333333     0          
C68      C      0.956600000000     0.571100000000     0.381433333333     0          
O1       O      0.532600000000     0.005600000000     0.373633333333     0          
O2       O      0.550100000000     0.057800000000     0.333333333333     0          
O5       O      0.486700000000     0.046800000000     0.333233333333     0          
O6       O      0.470700000000     0.065200000000     0.386533333333     0          
O7       O      0.413000000000     0.020600000000     0.360533333333     0          
O8       O      0.365100000000     0.073500000000     0.486533333333     0          
O9       O      0.433200000000     0.136100000000     0.503633333333     0          
O10      O      0.388600000000     0.148000000000     0.471633333333     0          
O11      O      0.362700000000     0.120500000000     0.523533333333     0          
O12      O      0.441600000000     0.056300000000     0.637433333333     0          
O13      O      0.499500000000     0.084100000000     0.612033333333     0          
O14      O      0.499600000000     0.416700000000     0.612133333333     0          
O15      O      0.441900000000     0.385000000000     0.638433333333     0          
O16      O      0.114900000000     0.074300000000     0.364733333333     0          
O17      O      0.090000000000     0.015100000000     0.386633333333     0          
O18      O      0.029700000000     0.029900000000     0.372233333333     0          
O19      O      0.057800000000     0.004100000000     0.333133333333     0          
O22      O      0.984400000000     0.908500000000     0.386333333333     0          
O23      O      0.925200000000     0.885400000000     0.362933333333     0          
O24      O      0.927800000000     0.792500000000     0.489533333333     0          
O25      O      0.856100000000     0.740400000000     0.475433333333     0          
O26      O      0.979900000000     0.588000000000     0.363033333333     0          
O27      O      0.936500000000     0.531800000000     0.386633333333     0          
O28      O      0.006500000000     0.535500000000     0.372033333333     0          
P2       P      0.388330000000     0.115730000000     0.495313333333     0          
Zr1      Zr     0.026680000000     0.973110000000     0.372013333333     0          
Zr3      Zr     0.518890000000     0.053150000000     0.372323333333     0          
Zr4      Zr     0.012120000000     0.568800000000     0.333143333333     0          
Zr5      Zr     0.947310000000     0.481300000000     0.372043333333     0          
C65      C      0.827750000000     0.655500000000     0.500003333333     0          
P1       P      0.885550000000     0.771100000000     0.500003333333     0          
Zr2      Zr     0.935530000000     0.935530000000     0.333333333333     0          
C1       C      0.101200000000     0.450700000000     0.932766666667     0          
C2       C      0.137900000000     0.477900000000     0.919866666667     0          
H1       H      0.147700000000     0.505600000000     0.921366666667     0          
C3       C      0.160100000000     0.463800000000     0.904766666667     0          
H2       H      0.184700000000     0.482000000000     0.896266666667     0          
C4       C      0.145500000000     0.422500000000     0.902566666667     0          
C5       C      0.108700000000     0.395200000000     0.915366666667     0          
H3       H      0.098900000000     0.367500000000     0.913966666667     0          
C6       C      0.086600000000     0.409300000000     0.930466666667     0          
H4       H      0.062000000000     0.391100000000     0.939066666667     0          
C7       C      0.173100000000     0.409600000000     0.888366666667     0          
C8       C      0.157900000000     0.380300000000     0.866566666667     0          
C9       C      0.181100000000     0.364200000000     0.856066666667     0          
C10      C      0.219500000000     0.377400000000     0.867566666667     0          
C11      C      0.234600000000     0.406600000000     0.889466666667     0          
C12      C      0.211500000000     0.422800000000     0.899866666667     0          
H5       H      0.221600000000     0.442300000000     0.914466666667     0          
C13      C      0.153400000000     0.285100000000     0.796666666667     0          
C14      C      0.163500000000     0.272400000000     0.771166666667     0          
C15      C      0.199200000000     0.298200000000     0.756466666667     0          
H6       H      0.206000000000     0.289700000000     0.739366666667     0          
C16      C      0.224800000000     0.336900000000     0.767366666667     0          
C17      C      0.214600000000     0.349600000000     0.792866666667     0          
C18      C      0.179000000000     0.323800000000     0.807566666667     0          
C19      C      0.135400000000     0.230500000000     0.758966666667     0          
C20      C      0.096800000000     0.218900000000     0.748866666667     0          
H7       H      0.085900000000     0.235600000000     0.751866666667     0          
C21      C      0.074300000000     0.182100000000     0.734366666667     0          
H8       H      0.048500000000     0.174400000000     0.727666666667     0          
C22      C      0.090600000000     0.157100000000     0.729966666667     0          
C23      C      0.129300000000     0.168800000000     0.740066666667     0          
H9       H      0.140100000000     0.152000000000     0.737166666667     0          
C24      C      0.151700000000     0.205500000000     0.754566666667     0          
H10      H      0.177600000000     0.213300000000     0.761366666667     0          
C25      C      0.275600000000     0.421700000000     0.903266666667     0          
C26      C      0.286500000000     0.394800000000     0.914966666667     0          
H11      H      0.269500000000     0.367200000000     0.912766666667     0          
C27      C      0.323000000000     0.409600000000     0.929866666667     0          
H12      H      0.330300000000     0.391600000000     0.937766666667     0          
C28      C      0.348500000000     0.451000000000     0.933166666667     0          
C29      C      0.337500000000     0.477800000000     0.921366666667     0          
H13      H      0.354600000000     0.505500000000     0.923566666667     0          
C30      C      0.301100000000     0.463100000000     0.906466666667     0          
H14      H      0.293800000000     0.481100000000     0.898566666667     0          
C31      C      0.267100000000     0.363000000000     0.754066666667     0          
C32      C      0.287900000000     0.344600000000     0.743066666667     0          
H15      H      0.276700000000     0.316700000000     0.744566666667     0          
C33      C      0.325300000000     0.367800000000     0.729666666667     0          
H16      H      0.339300000000     0.355600000000     0.722366666667     0          
C34      C      0.342000000000     0.409500000000     0.727366666667     0          
C35      C      0.321200000000     0.427900000000     0.738366666667     0          
H17      H      0.332300000000     0.455700000000     0.736766666667     0          
C36      C      0.283700000000     0.404600000000     0.751666666667     0          
H18      H      0.269800000000     0.416900000000     0.759066666667     0          
C37      C      0.091400000000     0.934500000000     0.728666666667     0          
C38      C      0.075800000000     0.893200000000     0.732466666667     0          
H19      H      0.050000000000     0.874900000000     0.725666666667     0          
C39      C      0.098800000000     0.879100000000     0.746466666667     0          
H20      H      0.088300000000     0.851400000000     0.748966666667     0          
C40      C      0.137300000000     0.906300000000     0.756566666667     0          
C41      C      0.152900000000     0.947700000000     0.752866666667     0          
H21      H      0.178700000000     0.965900000000     0.759666666667     0          
C42      C      0.130000000000     0.961800000000     0.738866666667     0          
H22      H      0.140400000000     0.989400000000     0.736366666667     0          
C43      C      0.164700000000     0.890900000000     0.769666666667     0          
C44      C      0.203500000000     0.906000000000     0.758466666667     0          
H23      H      0.211500000000     0.922300000000     0.741866666667     0          
C45      C      0.230400000000     0.896700000000     0.772066666667     0          
C46      C      0.218500000000     0.872300000000     0.796966666667     0          
C47      C      0.179700000000     0.857200000000     0.808166666667     0          
C48      C      0.152800000000     0.866600000000     0.794466666667     0          
C49      C      0.270600000000     0.909800000000     0.757666666667     0          
C50      C      0.287400000000     0.884900000000     0.756466666667     0          
H24      H      0.273700000000     0.859100000000     0.764466666667     0          
C51      C      0.324800000000     0.898600000000     0.743066666667     0          
H25      H      0.336100000000     0.881900000000     0.742266666667     0          
C52      C      0.345300000000     0.937100000000     0.731066666667     0          
C53      C      0.328500000000     0.962100000000     0.732266666667     0          
H26      H      0.342200000000     0.987900000000     0.724166666667     0          
C54      C      0.291100000000     0.948400000000     0.745566666667     0          
H27      H      0.279800000000     0.965100000000     0.746466666667     0          
C55      C      0.383800000000     0.431300000000     0.713066666667     0          
C56      C      0.385900000000     0.465900000000     0.951866666667     0          
C57      C      0.079500000000     0.465900000000     0.950766666667     0          
C58      C      0.119200000000     0.365300000000     0.847966666667     0          
H28      H      0.095700000000     0.343800000000     0.857766666667     0          
H29      H      0.114100000000     0.387100000000     0.843066666667     0          
C59      C      0.130500000000     0.350300000000     0.821566666667     0          
H30      H      0.145300000000     0.372100000000     0.807766666667     0          
H31      H      0.106500000000     0.329200000000     0.811966666667     0          
C60      C      0.158000000000     0.332700000000     0.833066666667     0          
C61      C      0.132500000000     0.288900000000     0.844466666667     0          
H32      H      0.148400000000     0.282300000000     0.857566666667     0          
H33      H      0.108900000000     0.285500000000     0.854866666667     0          
C62      C      0.119900000000     0.261800000000     0.817366666667     0          
H34      H      0.117500000000     0.235800000000     0.821766666667     0          
H35      H      0.094400000000     0.257500000000     0.809466666667     0          
C63      C      0.066100000000     0.116700000000     0.717166666667     0          
C64      C      0.067600000000     0.948200000000     0.714166666667     0          
C66      C      0.156600000000     0.785200000000     0.822666666667     0          
H36      H      0.178200000000     0.782200000000     0.814066666667     0          
H37      H      0.135500000000     0.777800000000     0.808166666667     0          
C67      C      0.240900000000     0.860000000000     0.816566666667     0          
H38      H      0.267100000000     0.883000000000     0.821366666667     0          
H39      H      0.244900000000     0.839400000000     0.807366666667     0          
C68      C      0.385500000000     0.956600000000     0.714766666667     0          
O1       O      0.527000000000     0.532600000000     0.706966666667     0          
O2       O      0.492300000000     0.550100000000     0.666666666667     0          
O5       O      0.439900000000     0.486700000000     0.666566666667     0          
O6       O      0.405500000000     0.470700000000     0.719866666667     0          
O7       O      0.392400000000     0.413000000000     0.693866666667     0          
O8       O      0.291600000000     0.365100000000     0.819866666667     0          
O9       O      0.297100000000     0.433200000000     0.836966666667     0          
O10      O      0.240600000000     0.388600000000     0.804966666667     0          
O11      O      0.242200000000     0.362700000000     0.856866666667     0          
O12      O      0.385300000000     0.441600000000     0.970766666667     0          
O13      O      0.415400000000     0.499500000000     0.945366666667     0          
O14      O      0.082900000000     0.499600000000     0.945466666667     0          
O15      O      0.056900000000     0.441900000000     0.971766666667     0          
O16      O      0.040600000000     0.114900000000     0.698066666667     0          
O17      O      0.074900000000     0.090000000000     0.719966666667     0          
O18      O      0.999800000000     0.029700000000     0.705566666667     0          
O19      O      0.053700000000     0.057800000000     0.666466666667     0          
O22      O      0.075900000000     0.984400000000     0.719666666667     0          
O23      O      0.039800000000     0.925200000000     0.696266666667     0          
O24      O      0.135300000000     0.927800000000     0.822866666667     0          
O25      O      0.115700000000     0.856100000000     0.808766666667     0          
O26      O      0.391900000000     0.979900000000     0.696366666667     0          
O27      O      0.404700000000     0.936500000000     0.719966666667     0          
O28      O      0.471000000000     0.006500000000     0.705366666667     0          
P2       P      0.272600000000     0.388330000000     0.828646666667     0          
Zr1      Zr     0.053570000000     0.026680000000     0.705346666667     0          
Zr3      Zr     0.465740000000     0.518890000000     0.705656666667     0          
Zr4      Zr     0.443320000000     0.012120000000     0.666476666667     0          
Zr5      Zr     0.466010000000     0.947310000000     0.705376666667     0          
C65      C      0.172250000000     0.827750000000     0.833336666667     0          
P1       P      0.114450000000     0.885550000000     0.833336666667     0          
Zr2      Zr     0.000000000000     0.935530000000     0.666666666667     0          
C1       C      0.898800000000     0.349500000000     0.400566666667     0          
C2       C      0.862100000000     0.340000000000     0.413466666667     0          
H1       H      0.852300000000     0.357900000000     0.411966666667     0          
C3       C      0.839900000000     0.303700000000     0.428566666667     0          
H2       H      0.815300000000     0.297300000000     0.437066666667     0          
C4       C      0.854500000000     0.277000000000     0.430766666667     0          
C5       C      0.891300000000     0.286500000000     0.417966666667     0          
H3       H      0.901100000000     0.268600000000     0.419366666667     0          
C6       C      0.913400000000     0.322700000000     0.402866666667     0          
H4       H      0.938000000000     0.329100000000     0.394266666667     0          
C7       C      0.826900000000     0.236500000000     0.444966666667     0          
C8       C      0.842100000000     0.222400000000     0.466766666667     0          
C9       C      0.818900000000     0.183100000000     0.477266666667     0          
C10      C      0.780500000000     0.157900000000     0.465766666667     0          
C11      C      0.765400000000     0.172000000000     0.443866666667     0          
C12      C      0.788500000000     0.211300000000     0.433466666667     0          
H5       H      0.778400000000     0.220700000000     0.418866666667     0          
C13      C      0.846600000000     0.131700000000     0.536666666667     0          
C14      C      0.836500000000     0.108900000000     0.562166666667     0          
C15      C      0.800800000000     0.099000000000     0.576866666667     0          
H6       H      0.794000000000     0.083700000000     0.593966666667     0          
C16      C      0.775200000000     0.112100000000     0.565966666667     0          
C17      C      0.785400000000     0.135000000000     0.540466666667     0          
C18      C      0.821000000000     0.144800000000     0.525766666667     0          
C19      C      0.864600000000     0.095100000000     0.574366666667     0          
C20      C      0.903200000000     0.122100000000     0.584466666667     0          
H7       H      0.914100000000     0.149700000000     0.581466666667     0          
C21      C      0.925700000000     0.107800000000     0.598966666667     0          
H8       H      0.951500000000     0.125900000000     0.605666666667     0          
C22      C      0.909400000000     0.066500000000     0.603366666667     0          
C23      C      0.870700000000     0.039500000000     0.593266666667     0          
H9       H      0.859900000000     0.011900000000     0.596166666667     0          
C24      C      0.848300000000     0.053800000000     0.578766666667     0          
H10      H      0.822400000000     0.035700000000     0.571966666667     0          
C25      C      0.724400000000     0.146100000000     0.430066666667     0          
C26      C      0.713500000000     0.108300000000     0.418366666667     0          
H11      H      0.730500000000     0.097700000000     0.420566666667     0          
C27      C      0.677000000000     0.086600000000     0.403466666667     0          
H12      H      0.669700000000     0.061300000000     0.395566666667     0          
C28      C      0.651500000000     0.102500000000     0.400166666667     0          
C29      C      0.662500000000     0.140300000000     0.411966666667     0          
H13      H      0.645400000000     0.150900000000     0.409766666667     0          
C30      C      0.698900000000     0.162000000000     0.426866666667     0          
H14      H      0.706200000000     0.187300000000     0.434766666667     0          
C31      C      0.732900000000     0.095900000000     0.579266666667     0          
C32      C      0.712100000000     0.056700000000     0.590266666667     0          
H15      H      0.723300000000     0.040000000000     0.588766666667     0          
C33      C      0.674700000000     0.042500000000     0.603666666667     0          
H16      H      0.660700000000     0.016300000000     0.610966666667     0          
C34      C      0.658000000000     0.067500000000     0.605966666667     0          
C35      C      0.678800000000     0.106700000000     0.594966666667     0          
H17      H      0.667700000000     0.123400000000     0.596566666667     0          
C36      C      0.716300000000     0.120900000000     0.581666666667     0          
H18      H      0.730200000000     0.147100000000     0.574266666667     0          
C37      C      0.908600000000     0.843100000000     0.604666666667     0          
C38      C      0.924200000000     0.817400000000     0.600866666667     0          
H19      H      0.950000000000     0.824900000000     0.607666666667     0          
C39      C      0.901200000000     0.780300000000     0.586866666667     0          
H20      H      0.911700000000     0.763100000000     0.584366666667     0          
C40      C      0.862700000000     0.769000000000     0.576766666667     0          
C41      C      0.847100000000     0.794800000000     0.580466666667     0          
H21      H      0.821300000000     0.787200000000     0.573666666667     0          
C42      C      0.870000000000     0.831800000000     0.594466666667     0          
H22      H      0.859600000000     0.849000000000     0.596966666667     0          
C43      C      0.835300000000     0.726200000000     0.563666666667     0          
C44      C      0.796500000000     0.702500000000     0.574866666667     0          
H23      H      0.788500000000     0.710800000000     0.591466666667     0          
C45      C      0.769600000000     0.666300000000     0.561266666667     0          
C46      C      0.781500000000     0.653800000000     0.536366666667     0          
C47      C      0.820300000000     0.677500000000     0.525166666667     0          
C48      C      0.847200000000     0.713800000000     0.538866666667     0          
C49      C      0.729400000000     0.639200000000     0.575666666667     0          
C50      C      0.712600000000     0.597500000000     0.576866666667     0          
H24      H      0.726300000000     0.585400000000     0.568866666667     0          
C51      C      0.675200000000     0.573800000000     0.590266666667     0          
H25      H      0.663900000000     0.545800000000     0.591066666667     0          
C52      C      0.654700000000     0.591800000000     0.602266666667     0          
C53      C      0.671500000000     0.633600000000     0.601066666667     0          
H26      H      0.657800000000     0.645700000000     0.609166666667     0          
C54      C      0.708900000000     0.657300000000     0.587766666667     0          
H27      H      0.720200000000     0.685300000000     0.586866666667     0          
C55      C      0.616200000000     0.047500000000     0.620266666667     0          
C56      C      0.614100000000     0.080000000000     0.381466666667     0          
C57      C      0.920500000000     0.386400000000     0.382566666667     0          
C58      C      0.880800000000     0.246100000000     0.485366666667     0          
H28      H      0.904300000000     0.248100000000     0.475566666667     0          
H29      H      0.885900000000     0.273000000000     0.490266666667     0          
C59      C      0.869500000000     0.219800000000     0.511766666667     0          
H30      H      0.854700000000     0.226800000000     0.525566666667     0          
H31      H      0.893500000000     0.222700000000     0.521366666667     0          
C60      C      0.842000000000     0.174700000000     0.500266666667     0          
C61      C      0.867500000000     0.156400000000     0.488866666667     0          
H32      H      0.851600000000     0.133900000000     0.475766666667     0          
H33      H      0.891100000000     0.176600000000     0.478466666667     0          
C62      C      0.880100000000     0.141900000000     0.515966666667     0          
H34      H      0.882500000000     0.118300000000     0.511566666667     0          
H35      H      0.905600000000     0.163100000000     0.523866666667     0          
C63      C      0.933900000000     0.050600000000     0.616166666667     0          
C64      C      0.932400000000     0.880600000000     0.619166666667     0          
C66      C      0.843400000000     0.628600000000     0.510666666667     0          
H36      H      0.821800000000     0.604000000000     0.519266666667     0          
H37      H      0.864500000000     0.642300000000     0.525166666667     0          
C67      C      0.759100000000     0.619100000000     0.516766666667     0          
H38      H      0.732900000000     0.615900000000     0.511966666667     0          
H39      H      0.755100000000     0.594500000000     0.525966666667     0          
C68      C      0.614500000000     0.571100000000     0.618566666667     0          
O1       O      0.473000000000     0.005600000000     0.626366666667     0          
O2       O      0.507700000000     0.057800000000     0.666666666667     0          
O5       O      0.560100000000     0.046800000000     0.666766666667     0          
O6       O      0.594500000000     0.065200000000     0.613466666667     0          
O7       O      0.607600000000     0.020600000000     0.639466666667     0          
O8       O      0.708400000000     0.073500000000     0.513466666667     0          
O9       O      0.702900000000     0.136100000000     0.496366666667     0          
O10      O      0.759400000000     0.148000000000     0.528366666667     0          
O11      O      0.757800000000     0.120500000000     0.476466666667     0          
O12      O      0.614700000000     0.056300000000     0.362566666667     0          
O13      O      0.584600000000     0.084100000000     0.387966666667     0          
O14      O      0.917100000000     0.416700000000     0.387866666667     0          
O15      O      0.943100000000     0.385000000000     0.361566666667     0          
O16      O      0.959400000000     0.074300000000     0.635266666667     0          
O17      O      0.925100000000     0.015100000000     0.613366666667     0          
O18      O      0.000200000000     0.029900000000     0.627766666667     0          
O19      O      0.946300000000     0.004100000000     0.666866666667     0          
O22      O      0.924100000000     0.908500000000     0.613666666667     0          
O23      O      0.960200000000     0.885400000000     0.637066666667     0          
O24      O      0.864700000000     0.792500000000     0.510466666667     0          
O25      O      0.884300000000     0.740400000000     0.524566666667     0          
O26      O      0.608100000000     0.588000000000     0.636966666667     0          
O27      O      0.595300000000     0.531800000000     0.613366666667     0          
O28      O      0.529000000000     0.535500000000     0.627966666667     0          
P2       P      0.727400000000     0.115730000000     0.504686666667     0          
Zr1      Zr     0.946430000000     0.973110000000     0.627986666667     0          
Zr3      Zr     0.534260000000     0.053150000000     0.627676666667     0          
Zr4      Zr     0.556680000000     0.568800000000     0.666856666667     0          
Zr5      Zr     0.533990000000     0.481300000000     0.627956666667     0          
C1       C      0.549300000000     0.898800000000     0.733900000000     0          
C2       C      0.522100000000     0.862100000000     0.746800000000     0          
H1       H      0.494400000000     0.852300000000     0.745300000000     0          
C3       C      0.536200000000     0.839900000000     0.761900000000     0          
H2       H      0.518000000000     0.815300000000     0.770400000000     0          
C4       C      0.577500000000     0.854500000000     0.764100000000     0          
C5       C      0.604800000000     0.891300000000     0.751300000000     0          
H3       H      0.632500000000     0.901100000000     0.752700000000     0          
C6       C      0.590700000000     0.913400000000     0.736200000000     0          
H4       H      0.608900000000     0.938000000000     0.727600000000     0          
C7       C      0.590400000000     0.826900000000     0.778300000000     0          
C8       C      0.619700000000     0.842100000000     0.800100000000     0          
C9       C      0.635800000000     0.818900000000     0.810600000000     0          
C10      C      0.622600000000     0.780500000000     0.799100000000     0          
C11      C      0.593400000000     0.765400000000     0.777200000000     0          
C12      C      0.577200000000     0.788500000000     0.766800000000     0          
H5       H      0.557700000000     0.778400000000     0.752200000000     0          
C13      C      0.714900000000     0.846600000000     0.870000000000     0          
C14      C      0.727600000000     0.836500000000     0.895500000000     0          
C15      C      0.701800000000     0.800800000000     0.910200000000     0          
H6       H      0.710300000000     0.794000000000     0.927300000000     0          
C16      C      0.663100000000     0.775200000000     0.899300000000     0          
C17      C      0.650400000000     0.785400000000     0.873800000000     0          
C18      C      0.676200000000     0.821000000000     0.859100000000     0          
C19      C      0.769500000000     0.864600000000     0.907700000000     0          
C20      C      0.781100000000     0.903200000000     0.917800000000     0          
H7       H      0.764400000000     0.914100000000     0.914800000000     0          
C21      C      0.817900000000     0.925700000000     0.932300000000     0          
H8       H      0.825600000000     0.951500000000     0.939000000000     0          
C22      C      0.842900000000     0.909400000000     0.936700000000     0          
C23      C      0.831200000000     0.870700000000     0.926600000000     0          
H9       H      0.848000000000     0.859900000000     0.929500000000     0          
C24      C      0.794500000000     0.848300000000     0.912100000000     0          
H10      H      0.786700000000     0.822400000000     0.905300000000     0          
C25      C      0.578300000000     0.724400000000     0.763400000000     0          
C26      C      0.605200000000     0.713500000000     0.751700000000     0          
H11      H      0.632800000000     0.730500000000     0.753900000000     0          
C27      C      0.590400000000     0.677000000000     0.736800000000     0          
H12      H      0.608400000000     0.669700000000     0.728900000000     0          
C28      C      0.549000000000     0.651500000000     0.733500000000     0          
C29      C      0.522200000000     0.662500000000     0.745300000000     0          
H13      H      0.494500000000     0.645400000000     0.743100000000     0          
C30      C      0.536900000000     0.698900000000     0.760200000000     0          
H14      H      0.518900000000     0.706200000000     0.768100000000     0          
C31      C      0.637000000000     0.732900000000     0.912600000000     0          
C32      C      0.655400000000     0.712100000000     0.923600000000     0          
H15      H      0.683300000000     0.723300000000     0.922100000000     0          
C33      C      0.632200000000     0.674700000000     0.937000000000     0          
H16      H      0.644400000000     0.660700000000     0.944300000000     0          
C34      C      0.590500000000     0.658000000000     0.939300000000     0          
C35      C      0.572100000000     0.678800000000     0.928300000000     0          
H17      H      0.544300000000     0.667700000000     0.929900000000     0          
C36      C      0.595400000000     0.716300000000     0.915000000000     0          
H18      H      0.583100000000     0.730200000000     0.907600000000     0          
C37      C      0.065500000000     0.908600000000     0.938000000000     0          
C38      C      0.106800000000     0.924200000000     0.934200000000     0          
H19      H      0.125100000000     0.950000000000     0.941000000000     0          
C39      C      0.120900000000     0.901200000000     0.920200000000     0          
H20      H      0.148600000000     0.911700000000     0.917700000000     0          
C40      C      0.093700000000     0.862700000000     0.910100000000     0          
C41      C      0.052300000000     0.847100000000     0.913800000000     0          
H21      H      0.034100000000     0.821300000000     0.907000000000     0          
C42      C      0.038200000000     0.870000000000     0.927800000000     0          
H22      H      0.010600000000     0.859600000000     0.930300000000     0          
C43      C      0.109100000000     0.835300000000     0.897000000000     0          
C44      C      0.094000000000     0.796500000000     0.908200000000     0          
H23      H      0.077700000000     0.788500000000     0.924800000000     0          
C45      C      0.103300000000     0.769600000000     0.894600000000     0          
C46      C      0.127700000000     0.781500000000     0.869700000000     0          
C47      C      0.142800000000     0.820300000000     0.858500000000     0          
C48      C      0.133400000000     0.847200000000     0.872200000000     0          
C49      C      0.090200000000     0.729400000000     0.909000000000     0          
C50      C      0.115100000000     0.712600000000     0.910200000000     0          
H24      H      0.140900000000     0.726300000000     0.902200000000     0          
C51      C      0.101400000000     0.675200000000     0.923600000000     0          
H25      H      0.118100000000     0.663900000000     0.924400000000     0          
C52      C      0.062900000000     0.654700000000     0.935600000000     0          
C53      C      0.037900000000     0.671500000000     0.934400000000     0          
H26      H      0.012100000000     0.657800000000     0.942500000000     0          
C54      C      0.051600000000     0.708900000000     0.921100000000     0          
H27      H      0.034900000000     0.720200000000     0.920200000000     0          
C55      C      0.568700000000     0.616200000000     0.953600000000     0          
C56      C      0.534100000000     0.614100000000     0.714800000000     0          
C57      C      0.534100000000     0.920500000000     0.715900000000     0          
C58      C      0.634700000000     0.880800000000     0.818700000000     0          
H28      H      0.656200000000     0.904300000000     0.808900000000     0          
H29      H      0.612900000000     0.885900000000     0.823600000000     0          
C59      C      0.649700000000     0.869500000000     0.845100000000     0          
H30      H      0.627900000000     0.854700000000     0.858900000000     0          
H31      H      0.670800000000     0.893500000000     0.854700000000     0          
C60      C      0.667300000000     0.842000000000     0.833600000000     0          
C61      C      0.711100000000     0.867500000000     0.822200000000     0          
H32      H      0.717700000000     0.851600000000     0.809100000000     0          
H33      H      0.714500000000     0.891100000000     0.811800000000     0          
C62      C      0.738200000000     0.880100000000     0.849300000000     0          
H34      H      0.764200000000     0.882500000000     0.844900000000     0          
H35      H      0.742500000000     0.905600000000     0.857200000000     0          
C63      C      0.883300000000     0.933900000000     0.949500000000     0          
C64      C      0.051800000000     0.932400000000     0.952500000000     0          
C66      C      0.214800000000     0.843400000000     0.844000000000     0          
H36      H      0.217800000000     0.821800000000     0.852600000000     0          
H37      H      0.222200000000     0.864500000000     0.858500000000     0          
C67      C      0.140000000000     0.759100000000     0.850100000000     0          
H38      H      0.117000000000     0.732900000000     0.845300000000     0          
H39      H      0.160600000000     0.755100000000     0.859300000000     0          
C68      C      0.043400000000     0.614500000000     0.951900000000     0          
O1       O      0.467400000000     0.473000000000     0.959700000000     0          
O2       O      0.449900000000     0.507700000000     0.000000000000     0          
O5       O      0.513300000000     0.560100000000     0.000100000000     0          
O6       O      0.529300000000     0.594500000000     0.946800000000     0          
O7       O      0.587000000000     0.607600000000     0.972800000000     0          
O8       O      0.634900000000     0.708400000000     0.846800000000     0          
O9       O      0.566800000000     0.702900000000     0.829700000000     0          
O10      O      0.611400000000     0.759400000000     0.861700000000     0          
O11      O      0.637300000000     0.757800000000     0.809800000000     0          
O12      O      0.558400000000     0.614700000000     0.695900000000     0          
O13      O      0.500500000000     0.584600000000     0.721300000000     0          
O14      O      0.500400000000     0.917100000000     0.721200000000     0          
O15      O      0.558100000000     0.943100000000     0.694900000000     0          
O16      O      0.885100000000     0.959400000000     0.968600000000     0          
O17      O      0.910000000000     0.925100000000     0.946700000000     0          
O18      O      0.970300000000     0.000200000000     0.961100000000     0          
O19      O      0.942200000000     0.946300000000     0.000200000000     0          
O22      O      0.015600000000     0.924100000000     0.947000000000     0          
O23      O      0.074800000000     0.960200000000     0.970400000000     0          
O24      O      0.072200000000     0.864700000000     0.843800000000     0          
O25      O      0.143900000000     0.884300000000     0.857900000000     0          
O26      O      0.020100000000     0.608100000000     0.970300000000     0          
O27      O      0.063500000000     0.595300000000     0.946700000000     0          
O28      O      0.993500000000     0.529000000000     0.961300000000     0          
P2       P      0.611670000000     0.727400000000     0.838020000000     0          
Zr1      Zr     0.973320000000     0.946430000000     0.961320000000     0          
Zr3      Zr     0.481110000000     0.534260000000     0.961010000000     0          
Zr4      Zr     0.987880000000     0.556680000000     0.000190000000     0          
Zr5      Zr     0.052690000000     0.533990000000     0.961290000000     0          
C1       C      0.650500000000     0.549300000000     0.067233333333     0          
C2       C      0.660000000000     0.522100000000     0.080133333333     0          
H1       H      0.642100000000     0.494400000000     0.078633333333     0          
C3       C      0.696300000000     0.536200000000     0.095233333333     0          
H2       H      0.702700000000     0.518000000000     0.103733333333     0          
C4       C      0.723000000000     0.577500000000     0.097433333333     0          
C5       C      0.713500000000     0.604800000000     0.084633333333     0          
H3       H      0.731400000000     0.632500000000     0.086033333333     0          
C6       C      0.677300000000     0.590700000000     0.069533333333     0          
H4       H      0.670900000000     0.608900000000     0.060933333333     0          
C7       C      0.763500000000     0.590400000000     0.111633333333     0          
C8       C      0.777600000000     0.619700000000     0.133433333333     0          
C9       C      0.816900000000     0.635800000000     0.143933333333     0          
C10      C      0.842100000000     0.622600000000     0.132433333333     0          
C11      C      0.828000000000     0.593400000000     0.110533333333     0          
C12      C      0.788700000000     0.577200000000     0.100133333333     0          
H5       H      0.779300000000     0.557700000000     0.085533333333     0          
C13      C      0.868300000000     0.714900000000     0.203333333333     0          
C14      C      0.891100000000     0.727600000000     0.228833333333     0          
C15      C      0.901000000000     0.701800000000     0.243533333333     0          
H6       H      0.916300000000     0.710300000000     0.260633333333     0          
C16      C      0.887900000000     0.663100000000     0.232633333333     0          
C17      C      0.865000000000     0.650400000000     0.207133333333     0          
C18      C      0.855200000000     0.676200000000     0.192433333333     0          
C19      C      0.904900000000     0.769500000000     0.241033333333     0          
C20      C      0.877900000000     0.781100000000     0.251133333333     0          
H7       H      0.850300000000     0.764400000000     0.248133333333     0          
C21      C      0.892200000000     0.817900000000     0.265633333333     0          
H8       H      0.874100000000     0.825600000000     0.272333333333     0          
C22      C      0.933500000000     0.842900000000     0.270033333333     0          
C23      C      0.960500000000     0.831200000000     0.259933333333     0          
H9       H      0.988100000000     0.848000000000     0.262833333333     0          
C24      C      0.946200000000     0.794500000000     0.245433333333     0          
H10      H      0.964300000000     0.786700000000     0.238633333333     0          
C25      C      0.853900000000     0.578300000000     0.096733333333     0          
C26      C      0.891700000000     0.605200000000     0.085033333333     0          
H11      H      0.902300000000     0.632800000000     0.087233333333     0          
C27      C      0.913400000000     0.590400000000     0.070133333333     0          
H12      H      0.938700000000     0.608400000000     0.062233333333     0          
C28      C      0.897500000000     0.549000000000     0.066833333333     0          
C29      C      0.859700000000     0.522200000000     0.078633333333     0          
H13      H      0.849100000000     0.494500000000     0.076433333333     0          
C30      C      0.838000000000     0.536900000000     0.093533333333     0          
H14      H      0.812700000000     0.518900000000     0.101433333333     0          
C31      C      0.904100000000     0.637000000000     0.245933333333     0          
C32      C      0.943300000000     0.655400000000     0.256933333333     0          
H15      H      0.960000000000     0.683300000000     0.255433333333     0          
C33      C      0.957500000000     0.632200000000     0.270333333333     0          
H16      H      0.983700000000     0.644400000000     0.277633333333     0          
C34      C      0.932500000000     0.590500000000     0.272633333333     0          
C35      C      0.893300000000     0.572100000000     0.261633333333     0          
H17      H      0.876600000000     0.544300000000     0.263233333333     0          
C36      C      0.879100000000     0.595400000000     0.248333333333     0          
H18      H      0.852900000000     0.583100000000     0.240933333333     0          
C37      C      0.156900000000     0.065500000000     0.271333333333     0          
C38      C      0.182600000000     0.106800000000     0.267533333333     0          
H19      H      0.175100000000     0.125100000000     0.274333333333     0          
C39      C      0.219700000000     0.120900000000     0.253533333333     0          
H20      H      0.236900000000     0.148600000000     0.251033333333     0          
C40      C      0.231000000000     0.093700000000     0.243433333333     0          
C41      C      0.205200000000     0.052300000000     0.247133333333     0          
H21      H      0.212800000000     0.034100000000     0.240333333333     0          
C42      C      0.168200000000     0.038200000000     0.261133333333     0          
H22      H      0.151000000000     0.010600000000     0.263633333333     0          
C43      C      0.273800000000     0.109100000000     0.230333333333     0          
C44      C      0.297500000000     0.094000000000     0.241533333333     0          
H23      H      0.289200000000     0.077700000000     0.258133333333     0          
C45      C      0.333700000000     0.103300000000     0.227933333333     0          
C46      C      0.346200000000     0.127700000000     0.203033333333     0          
C47      C      0.322500000000     0.142800000000     0.191833333333     0          
C48      C      0.286200000000     0.133400000000     0.205533333333     0          
C49      C      0.360800000000     0.090200000000     0.242333333333     0          
C50      C      0.402500000000     0.115100000000     0.243533333333     0          
H24      H      0.414600000000     0.140900000000     0.235533333333     0          
C51      C      0.426200000000     0.101400000000     0.256933333333     0          
H25      H      0.454200000000     0.118100000000     0.257733333333     0          
C52      C      0.408200000000     0.062900000000     0.268933333333     0          
C53      C      0.366400000000     0.037900000000     0.267733333333     0          
H26      H      0.354300000000     0.012100000000     0.275833333333     0          
C54      C      0.342700000000     0.051600000000     0.254433333333     0          
H27      H      0.314700000000     0.034900000000     0.253533333333     0          
C55      C      0.952500000000     0.568700000000     0.286933333333     0          
C56      C      0.920000000000     0.534100000000     0.048133333333     0          
C57      C      0.613600000000     0.534100000000     0.049233333333     0          
C58      C      0.753900000000     0.634700000000     0.152033333333     0          
H28      H      0.751900000000     0.656200000000     0.142233333333     0          
H29      H      0.727000000000     0.612900000000     0.156933333333     0          
C59      C      0.780200000000     0.649700000000     0.178433333333     0          
H30      H      0.773200000000     0.627900000000     0.192233333333     0          
H31      H      0.777300000000     0.670800000000     0.188033333333     0          
C60      C      0.825300000000     0.667300000000     0.166933333333     0          
C61      C      0.843600000000     0.711100000000     0.155533333333     0          
H32      H      0.866100000000     0.717700000000     0.142433333333     0          
H33      H      0.823400000000     0.714500000000     0.145133333333     0          
C62      C      0.858100000000     0.738200000000     0.182633333333     0          
H34      H      0.881700000000     0.764200000000     0.178233333333     0          
H35      H      0.836900000000     0.742500000000     0.190533333333     0          
C63      C      0.949400000000     0.883300000000     0.282833333333     0          
C64      C      0.119400000000     0.051800000000     0.285833333333     0          
C66      C      0.371400000000     0.214800000000     0.177333333333     0          
H36      H      0.396000000000     0.217800000000     0.185933333333     0          
H37      H      0.357700000000     0.222200000000     0.191833333333     0          
C67      C      0.380900000000     0.140000000000     0.183433333333     0          
H38      H      0.384100000000     0.117000000000     0.178633333333     0          
H39      H      0.405500000000     0.160600000000     0.192633333333     0          
C68      C      0.428900000000     0.043400000000     0.285233333333     0          
O1       O      0.994400000000     0.467400000000     0.293033333333     0          
O2       O      0.942200000000     0.449900000000     0.333333333333     0          
O5       O      0.953200000000     0.513300000000     0.333433333333     0          
O6       O      0.934800000000     0.529300000000     0.280133333333     0          
O7       O      0.979400000000     0.587000000000     0.306133333333     0          
O8       O      0.926500000000     0.634900000000     0.180133333333     0          
O9       O      0.863900000000     0.566800000000     0.163033333333     0          
O10      O      0.852000000000     0.611400000000     0.195033333333     0          
O11      O      0.879500000000     0.637300000000     0.143133333333     0          
O12      O      0.943700000000     0.558400000000     0.029233333333     0          
O13      O      0.915900000000     0.500500000000     0.054633333333     0          
O14      O      0.583300000000     0.500400000000     0.054533333333     0          
O15      O      0.615000000000     0.558100000000     0.028233333333     0          
O16      O      0.925700000000     0.885100000000     0.301933333333     0          
O17      O      0.984900000000     0.910000000000     0.280033333333     0          
O18      O      0.970100000000     0.970300000000     0.294433333333     0          
O19      O      0.995900000000     0.942200000000     0.333533333333     0          
O22      O      0.091500000000     0.015600000000     0.280333333333     0          
O23      O      0.114600000000     0.074800000000     0.303733333333     0          
O24      O      0.207500000000     0.072200000000     0.177133333333     0          
O25      O      0.259600000000     0.143900000000     0.191233333333     0          
O26      O      0.412000000000     0.020100000000     0.303633333333     0          
O27      O      0.468200000000     0.063500000000     0.280033333333     0          
O28      O      0.464500000000     0.993500000000     0.294633333333     0          
P2       P      0.884270000000     0.611670000000     0.171353333333     0          
Zr1      Zr     0.026890000000     0.973320000000     0.294653333333     0          
Zr3      Zr     0.946850000000     0.481110000000     0.294343333333     0          
Zr4      Zr     0.431200000000     0.987880000000     0.333523333333     0          
Zr5      Zr     0.518700000000     0.052690000000     0.294623333333     0          
C1       C      0.101200000000     0.650500000000     0.400566666667     0          
C2       C      0.137900000000     0.660000000000     0.413466666667     0          
H1       H      0.147700000000     0.642100000000     0.411966666667     0          
C3       C      0.160100000000     0.696300000000     0.428566666667     0          
H2       H      0.184700000000     0.702700000000     0.437066666667     0          
C4       C      0.145500000000     0.723000000000     0.430766666667     0          
C5       C      0.108700000000     0.713500000000     0.417966666667     0          
H3       H      0.098900000000     0.731400000000     0.419366666667     0          
C6       C      0.086600000000     0.677300000000     0.402866666667     0          
H4       H      0.062000000000     0.670900000000     0.394266666667     0          
C7       C      0.173100000000     0.763500000000     0.444966666667     0          
C8       C      0.157900000000     0.777600000000     0.466766666667     0          
C9       C      0.181100000000     0.816900000000     0.477266666667     0          
C10      C      0.219500000000     0.842100000000     0.465766666667     0          
C11      C      0.234600000000     0.828000000000     0.443866666667     0          
C12      C      0.211500000000     0.788700000000     0.433466666667     0          
H5       H      0.221600000000     0.779300000000     0.418866666667     0          
C13      C      0.153400000000     0.868300000000     0.536666666667     0          
C14      C      0.163500000000     0.891100000000     0.562166666667     0          
C15      C      0.199200000000     0.901000000000     0.576866666667     0          
H6       H      0.206000000000     0.916300000000     0.593966666667     0          
C16      C      0.224800000000     0.887900000000     0.565966666667     0          
C17      C      0.214600000000     0.865000000000     0.540466666667     0          
C18      C      0.179000000000     0.855200000000     0.525766666667     0          
C19      C      0.135400000000     0.904900000000     0.574366666667     0          
C20      C      0.096800000000     0.877900000000     0.584466666667     0          
H7       H      0.085900000000     0.850300000000     0.581466666667     0          
C21      C      0.074300000000     0.892200000000     0.598966666667     0          
H8       H      0.048500000000     0.874100000000     0.605666666667     0          
C22      C      0.090600000000     0.933500000000     0.603366666667     0          
C23      C      0.129300000000     0.960500000000     0.593266666667     0          
H9       H      0.140100000000     0.988100000000     0.596166666667     0          
C24      C      0.151700000000     0.946200000000     0.578766666667     0          
H10      H      0.177600000000     0.964300000000     0.571966666667     0          
C25      C      0.275600000000     0.853900000000     0.430066666667     0          
C26      C      0.286500000000     0.891700000000     0.418366666667     0          
H11      H      0.269500000000     0.902300000000     0.420566666667     0          
C27      C      0.323000000000     0.913400000000     0.403466666667     0          
H12      H      0.330300000000     0.938700000000     0.395566666667     0          
C28      C      0.348500000000     0.897500000000     0.400166666667     0          
C29      C      0.337500000000     0.859700000000     0.411966666667     0          
H13      H      0.354600000000     0.849100000000     0.409766666667     0          
C30      C      0.301100000000     0.838000000000     0.426866666667     0          
H14      H      0.293800000000     0.812700000000     0.434766666667     0          
C31      C      0.267100000000     0.904100000000     0.579266666667     0          
C32      C      0.287900000000     0.943300000000     0.590266666667     0          
H15      H      0.276700000000     0.960000000000     0.588766666667     0          
C33      C      0.325300000000     0.957500000000     0.603666666667     0          
H16      H      0.339300000000     0.983700000000     0.610966666667     0          
C34      C      0.342000000000     0.932500000000     0.605966666667     0          
C35      C      0.321200000000     0.893300000000     0.594966666667     0          
H17      H      0.332300000000     0.876600000000     0.596566666667     0          
C36      C      0.283700000000     0.879100000000     0.581666666667     0          
H18      H      0.269800000000     0.852900000000     0.574266666667     0          
C37      C      0.091400000000     0.156900000000     0.604666666667     0          
C38      C      0.075800000000     0.182600000000     0.600866666667     0          
H19      H      0.050000000000     0.175100000000     0.607666666667     0          
C39      C      0.098800000000     0.219700000000     0.586866666667     0          
H20      H      0.088300000000     0.236900000000     0.584366666667     0          
C40      C      0.137300000000     0.231000000000     0.576766666667     0          
C41      C      0.152900000000     0.205200000000     0.580466666667     0          
H21      H      0.178700000000     0.212800000000     0.573666666667     0          
C42      C      0.130000000000     0.168200000000     0.594466666667     0          
H22      H      0.140400000000     0.151000000000     0.596966666667     0          
C43      C      0.164700000000     0.273800000000     0.563666666667     0          
C44      C      0.203500000000     0.297500000000     0.574866666667     0          
H23      H      0.211500000000     0.289200000000     0.591466666667     0          
C45      C      0.230400000000     0.333700000000     0.561266666667     0          
C46      C      0.218500000000     0.346200000000     0.536366666667     0          
C47      C      0.179700000000     0.322500000000     0.525166666667     0          
C48      C      0.152800000000     0.286200000000     0.538866666667     0          
C49      C      0.270600000000     0.360800000000     0.575666666667     0          
C50      C      0.287400000000     0.402500000000     0.576866666667     0          
H24      H      0.273700000000     0.414600000000     0.568866666667     0          
C51      C      0.324800000000     0.426200000000     0.590266666667     0          
H25      H      0.336100000000     0.454200000000     0.591066666667     0          
C52      C      0.345300000000     0.408200000000     0.602266666667     0          
C53      C      0.328500000000     0.366400000000     0.601066666667     0          
H26      H      0.342200000000     0.354300000000     0.609166666667     0          
C54      C      0.291100000000     0.342700000000     0.587766666667     0          
H27      H      0.279800000000     0.314700000000     0.586866666667     0          
C55      C      0.383800000000     0.952500000000     0.620266666667     0          
C56      C      0.385900000000     0.920000000000     0.381466666667     0          
C57      C      0.079500000000     0.613600000000     0.382566666667     0          
C58      C      0.119200000000     0.753900000000     0.485366666667     0          
H28      H      0.095700000000     0.751900000000     0.475566666667     0          
H29      H      0.114100000000     0.727000000000     0.490266666667     0          
C59      C      0.130500000000     0.780200000000     0.511766666667     0          
H30      H      0.145300000000     0.773200000000     0.525566666667     0          
H31      H      0.106500000000     0.777300000000     0.521366666667     0          
C60      C      0.158000000000     0.825300000000     0.500266666667     0          
C61      C      0.132500000000     0.843600000000     0.488866666667     0          
H32      H      0.148400000000     0.866100000000     0.475766666667     0          
H33      H      0.108900000000     0.823400000000     0.478466666667     0          
C62      C      0.119900000000     0.858100000000     0.515966666667     0          
H34      H      0.117500000000     0.881700000000     0.511566666667     0          
H35      H      0.094400000000     0.836900000000     0.523866666667     0          
C63      C      0.066100000000     0.949400000000     0.616166666667     0          
C64      C      0.067600000000     0.119400000000     0.619166666667     0          
C66      C      0.156600000000     0.371400000000     0.510666666667     0          
H36      H      0.178200000000     0.396000000000     0.519266666667     0          
H37      H      0.135500000000     0.357700000000     0.525166666667     0          
C67      C      0.240900000000     0.380900000000     0.516766666667     0          
H38      H      0.267100000000     0.384100000000     0.511966666667     0          
H39      H      0.244900000000     0.405500000000     0.525966666667     0          
C68      C      0.385500000000     0.428900000000     0.618566666667     0          
O1       O      0.527000000000     0.994400000000     0.626366666667     0          
O2       O      0.492300000000     0.942200000000     0.666666666667     0          
O5       O      0.439900000000     0.953200000000     0.666766666667     0          
O6       O      0.405500000000     0.934800000000     0.613466666667     0          
O7       O      0.392400000000     0.979400000000     0.639466666667     0          
O8       O      0.291600000000     0.926500000000     0.513466666667     0          
O9       O      0.297100000000     0.863900000000     0.496366666667     0          
O10      O      0.240600000000     0.852000000000     0.528366666667     0          
O11      O      0.242200000000     0.879500000000     0.476466666667     0          
O12      O      0.385300000000     0.943700000000     0.362566666667     0          
O13      O      0.415400000000     0.915900000000     0.387966666667     0          
O14      O      0.082900000000     0.583300000000     0.387866666667     0          
O15      O      0.056900000000     0.615000000000     0.361566666667     0          
O16      O      0.040600000000     0.925700000000     0.635266666667     0          
O17      O      0.074900000000     0.984900000000     0.613366666667     0          
O18      O      0.999800000000     0.970100000000     0.627766666667     0          
O19      O      0.053700000000     0.995900000000     0.666866666667     0          
O22      O      0.075900000000     0.091500000000     0.613666666667     0          
O23      O      0.039800000000     0.114600000000     0.637066666667     0          
O24      O      0.135300000000     0.207500000000     0.510466666667     0          
O25      O      0.115700000000     0.259600000000     0.524566666667     0          
O26      O      0.391900000000     0.412000000000     0.636966666667     0          
O27      O      0.404700000000     0.468200000000     0.613366666667     0          
O28      O      0.471000000000     0.464500000000     0.627966666667     0          
P2       P      0.272600000000     0.884270000000     0.504686666667     0          
Zr1      Zr     0.053570000000     0.026890000000     0.627986666667     0          
Zr3      Zr     0.465740000000     0.946850000000     0.627676666667     0          
Zr4      Zr     0.443320000000     0.431200000000     0.666856666667     0          
Zr5      Zr     0.466010000000     0.518700000000     0.627956666667     0          
C1       C      0.450700000000     0.101200000000     0.733900000000     0          
C2       C      0.477900000000     0.137900000000     0.746800000000     0          
H1       H      0.505600000000     0.147700000000     0.745300000000     0          
C3       C      0.463800000000     0.160100000000     0.761900000000     0          
H2       H      0.482000000000     0.184700000000     0.770400000000     0          
C4       C      0.422500000000     0.145500000000     0.764100000000     0          
C5       C      0.395200000000     0.108700000000     0.751300000000     0          
H3       H      0.367500000000     0.098900000000     0.752700000000     0          
C6       C      0.409300000000     0.086600000000     0.736200000000     0          
H4       H      0.391100000000     0.062000000000     0.727600000000     0          
C7       C      0.409600000000     0.173100000000     0.778300000000     0          
C8       C      0.380300000000     0.157900000000     0.800100000000     0          
C9       C      0.364200000000     0.181100000000     0.810600000000     0          
C10      C      0.377400000000     0.219500000000     0.799100000000     0          
C11      C      0.406600000000     0.234600000000     0.777200000000     0          
C12      C      0.422800000000     0.211500000000     0.766800000000     0          
H5       H      0.442300000000     0.221600000000     0.752200000000     0          
C13      C      0.285100000000     0.153400000000     0.870000000000     0          
C14      C      0.272400000000     0.163500000000     0.895500000000     0          
C15      C      0.298200000000     0.199200000000     0.910200000000     0          
H6       H      0.289700000000     0.206000000000     0.927300000000     0          
C16      C      0.336900000000     0.224800000000     0.899300000000     0          
C17      C      0.349600000000     0.214600000000     0.873800000000     0          
C18      C      0.323800000000     0.179000000000     0.859100000000     0          
C19      C      0.230500000000     0.135400000000     0.907700000000     0          
C20      C      0.218900000000     0.096800000000     0.917800000000     0          
H7       H      0.235600000000     0.085900000000     0.914800000000     0          
C21      C      0.182100000000     0.074300000000     0.932300000000     0          
H8       H      0.174400000000     0.048500000000     0.939000000000     0          
C22      C      0.157100000000     0.090600000000     0.936700000000     0          
C23      C      0.168800000000     0.129300000000     0.926600000000     0          
H9       H      0.152000000000     0.140100000000     0.929500000000     0          
C24      C      0.205500000000     0.151700000000     0.912100000000     0          
H10      H      0.213300000000     0.177600000000     0.905300000000     0          
C25      C      0.421700000000     0.275600000000     0.763400000000     0          
C26      C      0.394800000000     0.286500000000     0.751700000000     0          
H11      H      0.367200000000     0.269500000000     0.753900000000     0          
C27      C      0.409600000000     0.323000000000     0.736800000000     0          
H12      H      0.391600000000     0.330300000000     0.728900000000     0          
C28      C      0.451000000000     0.348500000000     0.733500000000     0          
C29      C      0.477800000000     0.337500000000     0.745300000000     0          
H13      H      0.505500000000     0.354600000000     0.743100000000     0          
C30      C      0.463100000000     0.301100000000     0.760200000000     0          
H14      H      0.481100000000     0.293800000000     0.768100000000     0          
C31      C      0.363000000000     0.267100000000     0.912600000000     0          
C32      C      0.344600000000     0.287900000000     0.923600000000     0          
H15      H      0.316700000000     0.276700000000     0.922100000000     0          
C33      C      0.367800000000     0.325300000000     0.937000000000     0          
H16      H      0.355600000000     0.339300000000     0.944300000000     0          
C34      C      0.409500000000     0.342000000000     0.939300000000     0          
C35      C      0.427900000000     0.321200000000     0.928300000000     0          
H17      H      0.455700000000     0.332300000000     0.929900000000     0          
C36      C      0.404600000000     0.283700000000     0.915000000000     0          
H18      H      0.416900000000     0.269800000000     0.907600000000     0          
C37      C      0.934500000000     0.091400000000     0.938000000000     0          
C38      C      0.893200000000     0.075800000000     0.934200000000     0          
H19      H      0.874900000000     0.050000000000     0.941000000000     0          
C39      C      0.879100000000     0.098800000000     0.920200000000     0          
H20      H      0.851400000000     0.088300000000     0.917700000000     0          
C40      C      0.906300000000     0.137300000000     0.910100000000     0          
C41      C      0.947700000000     0.152900000000     0.913800000000     0          
H21      H      0.965900000000     0.178700000000     0.907000000000     0          
C42      C      0.961800000000     0.130000000000     0.927800000000     0          
H22      H      0.989400000000     0.140400000000     0.930300000000     0          
C43      C      0.890900000000     0.164700000000     0.897000000000     0          
C44      C      0.906000000000     0.203500000000     0.908200000000     0          
H23      H      0.922300000000     0.211500000000     0.924800000000     0          
C45      C      0.896700000000     0.230400000000     0.894600000000     0          
C46      C      0.872300000000     0.218500000000     0.869700000000     0          
C47      C      0.857200000000     0.179700000000     0.858500000000     0          
C48      C      0.866600000000     0.152800000000     0.872200000000     0          
C49      C      0.909800000000     0.270600000000     0.909000000000     0          
C50      C      0.884900000000     0.287400000000     0.910200000000     0          
H24      H      0.859100000000     0.273700000000     0.902200000000     0          
C51      C      0.898600000000     0.324800000000     0.923600000000     0          
H25      H      0.881900000000     0.336100000000     0.924400000000     0          
C52      C      0.937100000000     0.345300000000     0.935600000000     0          
C53      C      0.962100000000     0.328500000000     0.934400000000     0          
H26      H      0.987900000000     0.342200000000     0.942500000000     0          
C54      C      0.948400000000     0.291100000000     0.921100000000     0          
H27      H      0.965100000000     0.279800000000     0.920200000000     0          
C55      C      0.431300000000     0.383800000000     0.953600000000     0          
C56      C      0.465900000000     0.385900000000     0.714800000000     0          
C57      C      0.465900000000     0.079500000000     0.715900000000     0          
C58      C      0.365300000000     0.119200000000     0.818700000000     0          
H28      H      0.343800000000     0.095700000000     0.808900000000     0          
H29      H      0.387100000000     0.114100000000     0.823600000000     0          
C59      C      0.350300000000     0.130500000000     0.845100000000     0          
H30      H      0.372100000000     0.145300000000     0.858900000000     0          
H31      H      0.329200000000     0.106500000000     0.854700000000     0          
C60      C      0.332700000000     0.158000000000     0.833600000000     0          
C61      C      0.288900000000     0.132500000000     0.822200000000     0          
H32      H      0.282300000000     0.148400000000     0.809100000000     0          
H33      H      0.285500000000     0.108900000000     0.811800000000     0          
C62      C      0.261800000000     0.119900000000     0.849300000000     0          
H34      H      0.235800000000     0.117500000000     0.844900000000     0          
H35      H      0.257500000000     0.094400000000     0.857200000000     0          
C63      C      0.116700000000     0.066100000000     0.949500000000     0          
C64      C      0.948200000000     0.067600000000     0.952500000000     0          
C66      C      0.785200000000     0.156600000000     0.844000000000     0          
H36      H      0.782200000000     0.178200000000     0.852600000000     0          
H37      H      0.777800000000     0.135500000000     0.858500000000     0          
C67      C      0.860000000000     0.240900000000     0.850100000000     0          
H38      H      0.883000000000     0.267100000000     0.845300000000     0          
H39      H      0.839400000000     0.244900000000     0.859300000000     0          
C68      C      0.956600000000     0.385500000000     0.951900000000     0          
O1       O      0.532600000000     0.527000000000     0.959700000000     0          
O2       O      0.550100000000     0.492300000000     0.000000000000     0          
O5       O      0.486700000000     0.439900000000     0.000100000000     0          
O6       O      0.470700000000     0.405500000000     0.946800000000     0          
O7       O      0.413000000000     0.392400000000     0.972800000000     0          
O8       O      0.365100000000     0.291600000000     0.846800000000     0          
O9       O      0.433200000000     0.297100000000     0.829700000000     0          
O10      O      0.388600000000     0.240600000000     0.861700000000     0          
O11      O      0.362700000000     0.242200000000     0.809800000000     0          
O12      O      0.441600000000     0.385300000000     0.695900000000     0          
O13      O      0.499500000000     0.415400000000     0.721300000000     0          
O14      O      0.499600000000     0.082900000000     0.721200000000     0          
O15      O      0.441900000000     0.056900000000     0.694900000000     0          
O16      O      0.114900000000     0.040600000000     0.968600000000     0          
O17      O      0.090000000000     0.074900000000     0.946700000000     0          
O18      O      0.029700000000     0.999800000000     0.961100000000     0          
O19      O      0.057800000000     0.053700000000     0.000200000000     0          
O22      O      0.984400000000     0.075900000000     0.947000000000     0          
O23      O      0.925200000000     0.039800000000     0.970400000000     0          
O24      O      0.927800000000     0.135300000000     0.843800000000     0          
O25      O      0.856100000000     0.115700000000     0.857900000000     0          
O26      O      0.979900000000     0.391900000000     0.970300000000     0          
O27      O      0.936500000000     0.404700000000     0.946700000000     0          
O28      O      0.006500000000     0.471000000000     0.961300000000     0          
P2       P      0.388330000000     0.272600000000     0.838020000000     0          
Zr1      Zr     0.026680000000     0.053570000000     0.961320000000     0          
Zr3      Zr     0.518890000000     0.465740000000     0.961010000000     0          
Zr4      Zr     0.012120000000     0.443320000000     0.000190000000     0          
Zr5      Zr     0.947310000000     0.466010000000     0.961290000000     0          
C1       C      0.349500000000     0.450700000000     0.067233333333     0          
C2       C      0.340000000000     0.477900000000     0.080133333333     0          
H1       H      0.357900000000     0.505600000000     0.078633333333     0          
C3       C      0.303700000000     0.463800000000     0.095233333333     0          
H2       H      0.297300000000     0.482000000000     0.103733333333     0          
C4       C      0.277000000000     0.422500000000     0.097433333333     0          
C5       C      0.286500000000     0.395200000000     0.084633333333     0          
H3       H      0.268600000000     0.367500000000     0.086033333333     0          
C6       C      0.322700000000     0.409300000000     0.069533333333     0          
H4       H      0.329100000000     0.391100000000     0.060933333333     0          
C7       C      0.236500000000     0.409600000000     0.111633333333     0          
C8       C      0.222400000000     0.380300000000     0.133433333333     0          
C9       C      0.183100000000     0.364200000000     0.143933333333     0          
C10      C      0.157900000000     0.377400000000     0.132433333333     0          
C11      C      0.172000000000     0.406600000000     0.110533333333     0          
C12      C      0.211300000000     0.422800000000     0.100133333333     0          
H5       H      0.220700000000     0.442300000000     0.085533333333     0          
C13      C      0.131700000000     0.285100000000     0.203333333333     0          
C14      C      0.108900000000     0.272400000000     0.228833333333     0          
C15      C      0.099000000000     0.298200000000     0.243533333333     0          
H6       H      0.083700000000     0.289700000000     0.260633333333     0          
C16      C      0.112100000000     0.336900000000     0.232633333333     0          
C17      C      0.135000000000     0.349600000000     0.207133333333     0          
C18      C      0.144800000000     0.323800000000     0.192433333333     0          
C19      C      0.095100000000     0.230500000000     0.241033333333     0          
C20      C      0.122100000000     0.218900000000     0.251133333333     0          
H7       H      0.149700000000     0.235600000000     0.248133333333     0          
C21      C      0.107800000000     0.182100000000     0.265633333333     0          
H8       H      0.125900000000     0.174400000000     0.272333333333     0          
C22      C      0.066500000000     0.157100000000     0.270033333333     0          
C23      C      0.039500000000     0.168800000000     0.259933333333     0          
H9       H      0.011900000000     0.152000000000     0.262833333333     0          
C24      C      0.053800000000     0.205500000000     0.245433333333     0          
H10      H      0.035700000000     0.213300000000     0.238633333333     0          
C25      C      0.146100000000     0.421700000000     0.096733333333     0          
C26      C      0.108300000000     0.394800000000     0.085033333333     0          
H11      H      0.097700000000     0.367200000000     0.087233333333     0          
C27      C      0.086600000000     0.409600000000     0.070133333333     0          
H12      H      0.061300000000     0.391600000000     0.062233333333     0          
C28      C      0.102500000000     0.451000000000     0.066833333333     0          
C29      C      0.140300000000     0.477800000000     0.078633333333     0          
H13      H      0.150900000000     0.505500000000     0.076433333333     0          
C30      C      0.162000000000     0.463100000000     0.093533333333     0          
H14      H      0.187300000000     0.481100000000     0.101433333333     0          
C31      C      0.095900000000     0.363000000000     0.245933333333     0          
C32      C      0.056700000000     0.344600000000     0.256933333333     0          
H15      H      0.040000000000     0.316700000000     0.255433333333     0          
C33      C      0.042500000000     0.367800000000     0.270333333333     0          
H16      H      0.016300000000     0.355600000000     0.277633333333     0          
C34      C      0.067500000000     0.409500000000     0.272633333333     0          
C35      C      0.106700000000     0.427900000000     0.261633333333     0          
H17      H      0.123400000000     0.455700000000     0.263233333333     0          
C36      C      0.120900000000     0.404600000000     0.248333333333     0          
H18      H      0.147100000000     0.416900000000     0.240933333333     0          
C37      C      0.843100000000     0.934500000000     0.271333333333     0          
C38      C      0.817400000000     0.893200000000     0.267533333333     0          
H19      H      0.824900000000     0.874900000000     0.274333333333     0          
C39      C      0.780300000000     0.879100000000     0.253533333333     0          
H20      H      0.763100000000     0.851400000000     0.251033333333     0          
C40      C      0.769000000000     0.906300000000     0.243433333333     0          
C41      C      0.794800000000     0.947700000000     0.247133333333     0          
H21      H      0.787200000000     0.965900000000     0.240333333333     0          
C42      C      0.831800000000     0.961800000000     0.261133333333     0          
H22      H      0.849000000000     0.989400000000     0.263633333333     0          
C43      C      0.726200000000     0.890900000000     0.230333333333     0          
C44      C      0.702500000000     0.906000000000     0.241533333333     0          
H23      H      0.710800000000     0.922300000000     0.258133333333     0          
C45      C      0.666300000000     0.896700000000     0.227933333333     0          
C46      C      0.653800000000     0.872300000000     0.203033333333     0          
C47      C      0.677500000000     0.857200000000     0.191833333333     0          
C48      C      0.713800000000     0.866600000000     0.205533333333     0          
C49      C      0.639200000000     0.909800000000     0.242333333333     0          
C50      C      0.597500000000     0.884900000000     0.243533333333     0          
H24      H      0.585400000000     0.859100000000     0.235533333333     0          
C51      C      0.573800000000     0.898600000000     0.256933333333     0          
H25      H      0.545800000000     0.881900000000     0.257733333333     0          
C52      C      0.591800000000     0.937100000000     0.268933333333     0          
C53      C      0.633600000000     0.962100000000     0.267733333333     0          
H26      H      0.645700000000     0.987900000000     0.275833333333     0          
C54      C      0.657300000000     0.948400000000     0.254433333333     0          
H27      H      0.685300000000     0.965100000000     0.253533333333     0          
C55      C      0.047500000000     0.431300000000     0.286933333333     0          
C56      C      0.080000000000     0.465900000000     0.048133333333     0          
C57      C      0.386400000000     0.465900000000     0.049233333333     0          
C58      C      0.246100000000     0.365300000000     0.152033333333     0          
H28      H      0.248100000000     0.343800000000     0.142233333333     0          
H29      H      0.273000000000     0.387100000000     0.156933333333     0          
C59      C      0.219800000000     0.350300000000     0.178433333333     0          
H30      H      0.226800000000     0.372100000000     0.192233333333     0          
H31      H      0.222700000000     0.329200000000     0.188033333333     0          
C60      C      0.174700000000     0.332700000000     0.166933333333     0          
C61      C      0.156400000000     0.288900000000     0.155533333333     0          
H32      H      0.133900000000     0.282300000000     0.142433333333     0          
H33      H      0.176600000000     0.285500000000     0.145133333333     0          
C62      C      0.141900000000     0.261800000000     0.182633333333     0          
H34      H      0.118300000000     0.235800000000     0.178233333333     0          
H35      H      0.163100000000     0.257500000000     0.190533333333     0          
C63      C      0.050600000000     0.116700000000     0.282833333333     0          
C64      C      0.880600000000     0.948200000000     0.285833333333     0          
C66      C      0.628600000000     0.785200000000     0.177333333333     0          
H36      H      0.604000000000     0.782200000000     0.185933333333     0          
H37      H      0.642300000000     0.777800000000     0.191833333333     0          
C67      C      0.619100000000     0.860000000000     0.183433333333     0          
H38      H      0.615900000000     0.883000000000     0.178633333333     0          
H39      H      0.594500000000     0.839400000000     0.192633333333     0          
C68      C      0.571100000000     0.956600000000     0.285233333333     0          
O1       O      0.005600000000     0.532600000000     0.293033333333     0          
O2       O      0.057800000000     0.550100000000     0.333333333333     0          
O5       O      0.046800000000     0.486700000000     0.333433333333     0          
O6       O      0.065200000000     0.470700000000     0.280133333333     0          
O7       O      0.020600000000     0.413000000000     0.306133333333     0          
O8       O      0.073500000000     0.365100000000     0.180133333333     0          
O9       O      0.136100000000     0.433200000000     0.163033333333     0          
O10      O      0.148000000000     0.388600000000     0.195033333333     0          
O11      O      0.120500000000     0.362700000000     0.143133333333     0          
O12      O      0.056300000000     0.441600000000     0.029233333333     0          
O13      O      0.084100000000     0.499500000000     0.054633333333     0          
O14      O      0.416700000000     0.499600000000     0.054533333333     0          
O15      O      0.385000000000     0.441900000000     0.028233333333     0          
O16      O      0.074300000000     0.114900000000     0.301933333333     0          
O17      O      0.015100000000     0.090000000000     0.280033333333     0          
O18      O      0.029900000000     0.029700000000     0.294433333333     0          
O19      O      0.004100000000     0.057800000000     0.333533333333     0          
O22      O      0.908500000000     0.984400000000     0.280333333333     0          
O23      O      0.885400000000     0.925200000000     0.303733333333     0          
O24      O      0.792500000000     0.927800000000     0.177133333333     0          
O25      O      0.740400000000     0.856100000000     0.191233333333     0          
O26      O      0.588000000000     0.979900000000     0.303633333333     0          
O27      O      0.531800000000     0.936500000000     0.280033333333     0          
O28      O      0.535500000000     0.006500000000     0.294633333333     0          
P2       P      0.115730000000     0.388330000000     0.171353333333     0          
Zr1      Zr     0.973110000000     0.026680000000     0.294653333333     0          
Zr3      Zr     0.053150000000     0.518890000000     0.294343333333     0          
Zr4      Zr     0.568800000000     0.012120000000     0.333523333333     0          
Zr5      Zr     0.481300000000     0.947310000000     0.294623333333     0          


