data_JOHDIW

_audit_creation_method RASPA-1.0
_audit_creation_date 2020-4-3
_audit_author_name 'Rocio Bueno-Perez'

_cell_length_a    45.122
_cell_length_b    45.122
_cell_length_c    49.238
_cell_angle_alpha 90
_cell_angle_beta  90
_cell_angle_gamma 120
_cell_volume      86817.6

_symmetry_cell_setting          trigonal
_symmetry_space_group_name_Hall 'P 1'
_symmetry_space_group_name_H-M  'P 1'
_symmetry_Int_Tables_number     1

_symmetry_equiv_pos_as_xyz 'x,y,z'

loop_
_atom_site_label
_atom_site_type_symbol
_atom_site_fract_x
_atom_site_fract_y
_atom_site_fract_z
_atom_site_charge
Zr1      Zr     0.051590000000     0.000000000000     0.166700000000     0          
Zr2      Zr     0.528220000000     0.528240000000     0.830470000000     0          
Zr3      Zr     0.943210000000     0.000000000000     0.166700000000     0          
Zr4      Zr     0.975400000000     0.955900000000     0.130130000000     0          
Zr5      Zr     0.020700000000     0.046250000000     0.131720000000     0          
Zr6      Zr     0.511580000000     0.455190000000     0.867150000000     0          
Zr7      Zr     0.433910000000     0.411020000000     0.832320000000     0          
Zr8      Zr     0.451490000000     0.484110000000     0.795900000000     0          
Zr9      Zr     0.510240000000     0.453890000000     0.795530000000     0          
Zr10     Zr     0.452650000000     0.485530000000     0.867250000000     0          
P1       P      0.377360000000     0.230340000000     0.002360000000     0          
P2       P      0.375800000000     0.091750000000     0.665530000000     0          
O1       O      0.969200000000     0.001640000000     0.128100000000     0          
O2       O      0.952030000000     0.960280000000     0.166610000000     0          
P3       P      0.900250000000     0.145270000000     0.000330000000     0          
O3       O      0.457300000000     0.442900000000     0.871580000000     0          
O4       O      0.597800000000     0.041700000000     0.884000000000     0          
O5       O      0.022250000000     0.998430000000     0.131630000000     0          
O6       O      0.454630000000     0.483740000000     0.911570000000     0          
O7       O      0.500940000000     0.497260000000     0.793150000000     0          
O8       O      0.000870000000     0.953670000000     0.166810000000     0          
O9       O      0.453800000000     0.479200000000     0.751380000000     0          
O10      O      0.537850000000     0.484760000000     0.829480000000     0          
O11      O      0.433180000000     0.371050000000     0.858650000000     0          
O12      O      0.378980000000     0.208150000000     0.025170000000     0          
O13      O      0.897990000000     0.168830000000     0.977490000000     0          
O14      O      0.356400000000     0.094460000000     0.688390000000     0          
O15      O      0.375920000000     0.118780000000     0.643260000000     0          
O16      O      0.436340000000     0.456680000000     0.830870000000     0          
O17      O      0.357910000000     0.057120000000     0.655330000000     0          
O18      O      0.874510000000     0.146520000000     0.022730000000     0          
C1       C      0.849100000000     0.195100000000     0.999500000000     0          
O19      O      0.095130000000     0.035250000000     0.141260000000     0          
O20      O      0.355130000000     0.202520000000     0.980590000000     0          
C2       C      0.881800000000     0.253700000000     0.014100000000     0          
H1       H      0.902000000000     0.275700000000     0.010700000000     0          
H2       H      0.864200000000     0.257600000000     0.021700000000     0          
O21      O      0.945200000000     0.895900000000     0.134040000000     0          
O22      O      0.414340000000     0.110010000000     0.670700000000     0          
C3       C      0.283780000000     0.141530000000     0.060450000000     0          
C4       C      0.295780000000     0.131000000000     0.038610000000     0          
C5       C      0.328150000000     0.152700000000     0.028060000000     0          
C6       C      0.348540000000     0.184920000000     0.039360000000     0          
C7       C      0.336540000000     0.195450000000     0.061200000000     0          
C8       C      0.304170000000     0.173760000000     0.071750000000     0          
H3       H      0.296100000000     0.180800000000     0.086400000000     0          
O23      O      0.413700000000     0.252100000000     0.992140000000     0          
C9       C      0.414230000000     0.044710000000     0.554100000000     0          
H4       H      0.403700000000     0.023800000000     0.545100000000     0          
C10      C      0.449730000000     0.064310000000     0.554890000000     0          
C11      C      0.465440000000     0.095620000000     0.568290000000     0          
H5       H      0.489200000000     0.108700000000     0.568800000000     0          
C12      C      0.445660000000     0.107320000000     0.580900000000     0          
H6       H      0.456200000000     0.128300000000     0.589900000000     0          
C13      C      0.410170000000     0.087720000000     0.580110000000     0          
C14      C      0.394450000000     0.056410000000     0.566710000000     0          
C15      C      0.358960000000     0.036810000000     0.565920000000     0          
H7       H      0.348400000000     0.015900000000     0.557000000000     0          
C16      C      0.339180000000     0.048510000000     0.578530000000     0          
H8       H      0.315400000000     0.035400000000     0.578000000000     0          
C17      C      0.354900000000     0.079810000000     0.591930000000     0          
C18      C      0.390390000000     0.099420000000     0.592730000000     0          
H9       H      0.400900000000     0.120400000000     0.601700000000     0          
O24      O      0.966840000000     0.060950000000     0.861530000000     0          
O25      O      0.074880000000     0.064190000000     0.117720000000     0          
C19      C      0.355200000000     0.199000000000     0.684500000000     0          
H10      H      0.375700000000     0.219400000000     0.678400000000     0          
H11      H      0.340300000000     0.205700000000     0.693400000000     0          
O26      O      0.510180000000     0.457710000000     0.911920000000     0          
C20      C      0.376540000000     0.134100000000     0.975270000000     0          
C21      C      0.396530000000     0.143610000000     0.951930000000     0          
C22      C      0.402500000000     0.172630000000     0.937610000000     0          
H12      H      0.415900000000     0.179000000000     0.922000000000     0          
C23      C      0.388460000000     0.192150000000     0.946640000000     0          
C24      C      0.368460000000     0.182640000000     0.969980000000     0          
C25      C      0.362500000000     0.153620000000     0.984300000000     0          
O27      O      0.879100000000     0.105100000000     0.990300000000     0          
O28      O      0.358300000000     0.247100000000     0.011650000000     0          
C26      C      0.457600000000     0.371600000000     0.873400000000     0          
C27      C      0.298300000000     0.107600000000     0.996600000000     0          
H13      H      0.289600000000     0.118600000000     0.984600000000     0          
H14      H      0.296500000000     0.087700000000     0.987500000000     0          
C28      C      0.410200000000     0.280220000000     0.086620000000     0          
H15      H      0.433800000000     0.291200000000     0.088700000000     0          
C29      C      0.392620000000     0.247330000000     0.075920000000     0          
H16      H      0.404500000000     0.236300000000     0.070900000000     0          
C30      C      0.357300000000     0.230970000000     0.072780000000     0          
C31      C      0.339560000000     0.247490000000     0.080350000000     0          
H17      H      0.315900000000     0.236500000000     0.078200000000     0          
C32      C      0.357140000000     0.280380000000     0.091050000000     0          
C33      C      0.392450000000     0.296740000000     0.094190000000     0          
C34      C      0.410030000000     0.329630000000     0.104890000000     0          
H18      H      0.433700000000     0.340600000000     0.107000000000     0          
C35      C      0.392290000000     0.346160000000     0.112460000000     0          
C36      C      0.356970000000     0.329790000000     0.109320000000     0          
H19      H      0.345100000000     0.340800000000     0.114400000000     0          
C37      C      0.339390000000     0.296900000000     0.098620000000     0          
H20      H      0.315800000000     0.285900000000     0.096500000000     0          
C38      C      0.965990000000     0.326130000000     0.093230000000     0          
H21      H      0.987200000000     0.337000000000     0.101900000000     0          
C39      C      0.954600000000     0.294650000000     0.080710000000     0          
H22      H      0.968200000000     0.284500000000     0.081000000000     0          
C40      C      0.922960000000     0.278360000000     0.067830000000     0          
C41      C      0.902700000000     0.293550000000     0.067470000000     0          
H23      H      0.881500000000     0.282600000000     0.058800000000     0          
C42      C      0.914090000000     0.325030000000     0.079990000000     0          
C43      C      0.945740000000     0.341330000000     0.092870000000     0          
C44      C      0.957130000000     0.372810000000     0.105390000000     0          
H24      H      0.978300000000     0.383700000000     0.114000000000     0          
C45      C      0.936870000000     0.388000000000     0.105030000000     0          
C46      C      0.905220000000     0.371710000000     0.092140000000     0          
H25      H      0.891700000000     0.381900000000     0.091900000000     0          
C47      C      0.893830000000     0.340230000000     0.079630000000     0          
H26      H      0.872700000000     0.329300000000     0.071000000000     0          
O29      O      0.937380000000     0.012000000000     0.882470000000     0          
C48      C      0.333470000000     0.092400000000     0.606660000000     0          
C49      C      0.344010000000     0.111580000000     0.630420000000     0          
C50      C      0.320960000000     0.117020000000     0.645280000000     0          
C51      C      0.287390000000     0.103280000000     0.636390000000     0          
C52      C      0.276850000000     0.084090000000     0.612630000000     0          
C53      C      0.299900000000     0.078650000000     0.597760000000     0          
H27      H      0.292900000000     0.065800000000     0.581900000000     0          
O30      O      0.609110000000     0.003740000000     0.862300000000     0          
C54      C      0.717540000000     0.124260000000     0.920550000000     0          
H28      H      0.707200000000     0.137600000000     0.919100000000     0          
C55      C      0.749850000000     0.137920000000     0.932140000000     0          
H29      H      0.761100000000     0.160400000000     0.938400000000     0          
C56      C      0.765330000000     0.118030000000     0.934350000000     0          
C57      C      0.748500000000     0.084480000000     0.924980000000     0          
H30      H      0.758900000000     0.071200000000     0.926500000000     0          
C58      C      0.716190000000     0.070820000000     0.913390000000     0          
C59      C      0.700710000000     0.090710000000     0.911170000000     0          
C60      C      0.668410000000     0.077050000000     0.899590000000     0          
H31      H      0.658100000000     0.090400000000     0.898100000000     0          
C61      C      0.651570000000     0.043500000000     0.890210000000     0          
C62      C      0.667050000000     0.023600000000     0.892430000000     0          
H32      H      0.655800000000     0.001200000000     0.886200000000     0          
C63      C      0.699360000000     0.037260000000     0.904020000000     0          
H33      H      0.709700000000     0.024000000000     0.905500000000     0          
O31      O      0.507090000000     0.451060000000     0.751910000000     0          
C64      C      0.943700000000     0.040100000000     0.878000000000     0          
C65      C      0.143990000000     0.036480000000     0.568210000000     0          
H34      H      0.128200000000     0.013200000000     0.567800000000     0          
C66      C      0.135370000000     0.059740000000     0.557640000000     0          
C67      C      0.159020000000     0.094570000000     0.558180000000     0          
H35      H      0.153300000000     0.110100000000     0.551100000000     0          
C68      C      0.191300000000     0.106130000000     0.569270000000     0          
H36      H      0.207100000000     0.129400000000     0.569600000000     0          
C69      C      0.199920000000     0.082870000000     0.579830000000     0          
C70      C      0.176270000000     0.048040000000     0.579300000000     0          
C71      C      0.184890000000     0.024780000000     0.589860000000     0          
H37      H      0.169100000000     0.001500000000     0.589500000000     0          
C72      C      0.217170000000     0.036340000000     0.600960000000     0          
H38      H      0.222900000000     0.020800000000     0.608000000000     0          
C73      C      0.240830000000     0.071170000000     0.601490000000     0          
C74      C      0.232200000000     0.094430000000     0.590930000000     0          
H39      H      0.248000000000     0.117700000000     0.591300000000     0          
C75      C      0.376070000000     0.258530000000     0.908150000000     0          
H40      H      0.358100000000     0.260900000000     0.901400000000     0          
C76      C      0.369370000000     0.228630000000     0.921450000000     0          
H41      H      0.346900000000     0.211000000000     0.923600000000     0          
C77      C      0.396220000000     0.225120000000     0.931540000000     0          
C78      C      0.429780000000     0.251500000000     0.928330000000     0          
H42      H      0.447700000000     0.249100000000     0.935100000000     0          
C79      C      0.436480000000     0.281400000000     0.915030000000     0          
C80      C      0.409630000000     0.284910000000     0.904940000000     0          
C81      C      0.416330000000     0.314810000000     0.891640000000     0          
H43      H      0.398400000000     0.317200000000     0.884900000000     0          
C82      C      0.449890000000     0.341190000000     0.888430000000     0          
C83      C      0.476740000000     0.337680000000     0.898520000000     0          
H44      H      0.499200000000     0.355300000000     0.896400000000     0          
C84      C      0.470040000000     0.307780000000     0.911820000000     0          
H45      H      0.488000000000     0.305400000000     0.918600000000     0          
O32      O      0.939600000000     0.163400000000     0.008300000000     0          
C85      C      0.355100000000     0.113900000000     0.018700000000     0          
H46      H      0.374300000000     0.128800000000     0.030300000000     0          
H47      H      0.338900000000     0.094100000000     0.029100000000     0          
C86      C      0.325400000000     0.138800000000     0.667700000000     0          
C87      C      0.280000000000     0.098300000000     0.022700000000     0          
H48      H      0.283000000000     0.081000000000     0.032000000000     0          
H49      H      0.255700000000     0.089600000000     0.020000000000     0          
C88      C      0.171650000000     0.127120000000     0.086520000000     0          
H50      H      0.178300000000     0.148600000000     0.079300000000     0          
C89      C      0.139840000000     0.108340000000     0.098880000000     0          
H51      H      0.125200000000     0.117300000000     0.100000000000     0          
C90      C      0.129870000000     0.076210000000     0.109640000000     0          
C91      C      0.151710000000     0.062870000000     0.108040000000     0          
H52      H      0.145000000000     0.041400000000     0.115200000000     0          
C92      C      0.183510000000     0.081660000000     0.095680000000     0          
C93      C      0.193480000000     0.113780000000     0.084920000000     0          
C94      C      0.225290000000     0.132570000000     0.072550000000     0          
H53      H      0.232000000000     0.154100000000     0.065400000000     0          
C95      C      0.247120000000     0.119230000000     0.070950000000     0          
C96      C      0.237150000000     0.087100000000     0.081710000000     0          
H54      H      0.251800000000     0.078200000000     0.080600000000     0          
C97      C      0.205350000000     0.068320000000     0.094070000000     0          
H55      H      0.198700000000     0.046800000000     0.101300000000     0          
C98      C      0.811200000000     0.179100000000     0.011900000000     0          
H56      H      0.804900000000     0.159300000000     0.023300000000     0          
H57      H      0.807600000000     0.195800000000     0.021400000000     0          
C99      C      0.865720000000     0.092640000000     0.925390000000     0          
H58      H      0.843700000000     0.077500000000     0.931500000000     0          
C100     C      0.878790000000     0.127710000000     0.927820000000     0          
C101     C      0.911640000000     0.150410000000     0.918640000000     0          
H59      H      0.920400000000     0.173900000000     0.920300000000     0          
C102     C      0.931420000000     0.138050000000     0.907030000000     0          
H60      H      0.953400000000     0.153200000000     0.900900000000     0          
C103     C      0.918350000000     0.102990000000     0.904600000000     0          
C104     C      0.885510000000     0.080290000000     0.913780000000     0          
C105     C      0.872440000000     0.045220000000     0.911340000000     0          
H61      H      0.850500000000     0.030000000000     0.917500000000     0          
C106     C      0.892220000000     0.032870000000     0.899740000000     0          
H62      H      0.883500000000     0.009400000000     0.898100000000     0          
C107     C      0.925070000000     0.055570000000     0.890560000000     0          
C108     C      0.938140000000     0.090630000000     0.892990000000     0          
H63      H      0.960100000000     0.105800000000     0.886900000000     0          
C109     C      0.812250000000     0.156690000000     0.967210000000     0          
C110     C      0.845600000000     0.170030000000     0.976540000000     0          
C111     C      0.867320000000     0.160540000000     0.964210000000     0          
C112     C      0.855690000000     0.137720000000     0.942560000000     0          
C113     C      0.822340000000     0.124390000000     0.933230000000     0          
H64      H      0.814600000000     0.109100000000     0.918700000000     0          
C114     C      0.800620000000     0.133880000000     0.945560000000     0          
C115     C      0.337500000000     0.133900000000     0.005900000000     0          
O33      O      0.485900000000     0.401200000000     0.882460000000     0          
C116     C      0.876730000000     0.200880000000     0.022830000000     0          
C117     C      0.889730000000     0.233990000000     0.032620000000     0          
C118     C      0.912380000000     0.245300000000     0.054390000000     0          
C119     C      0.922030000000     0.223500000000     0.066370000000     0          
H65      H      0.937200000000     0.231100000000     0.080900000000     0          
C120     C      0.909000000000     0.190400000000     0.056570000000     0          
C121     C      0.886380000000     0.179080000000     0.034810000000     0          
C122     C      0.366500000000     0.103900000000     0.994300000000     0          
H66      H      0.348100000000     0.082900000000     0.986600000000     0          
H67      H      0.385800000000     0.100800000000     0.998200000000     0          
C123     C      0.446250000000     0.135420000000     0.937680000000     0          
H68      H      0.461700000000     0.157100000000     0.944300000000     0          
C124     C      0.411380000000     0.121770000000     0.942030000000     0          
C125     C      0.388270000000     0.089430000000     0.932140000000     0          
H69      H      0.364900000000     0.080300000000     0.935100000000     0          
C126     C      0.400030000000     0.070730000000     0.917920000000     0          
H70      H      0.384600000000     0.049100000000     0.911300000000     0          
C127     C      0.434900000000     0.084370000000     0.913570000000     0          
C128     C      0.458010000000     0.116720000000     0.923450000000     0          
C129     C      0.492880000000     0.130360000000     0.919110000000     0          
H71      H      0.508300000000     0.152000000000     0.925700000000     0          
C130     C      0.504650000000     0.111660000000     0.904880000000     0          
H72      H      0.528000000000     0.120800000000     0.902000000000     0          
C131     C      0.481530000000     0.079320000000     0.895000000000     0          
C132     C      0.446660000000     0.065670000000     0.899350000000     0          
H73      H      0.431200000000     0.044000000000     0.892700000000     0          
C133     C      0.869000000000     0.233200000000     0.987300000000     0          
H74      H      0.887800000000     0.236700000000     0.975600000000     0          
H75      H      0.853800000000     0.238700000000     0.977400000000     0          
C134     C      0.336800000000     0.174400000000     0.660600000000     0          
H76      H      0.317100000000     0.176300000000     0.655300000000     0          
H77      H      0.352200000000     0.181100000000     0.645200000000     0          
C135     C      0.616900000000     0.028000000000     0.878300000000     0          
C136     C      0.354690000000     0.147590000000     0.690400000000     0          
C137     C      0.368560000000     0.128060000000     0.699760000000     0          
C138     C      0.391420000000     0.139660000000     0.721390000000     0          
C139     C      0.400410000000     0.170780000000     0.733650000000     0          
H78      H      0.415700000000     0.178500000000     0.748100000000     0          
C140     C      0.386500000000     0.190320000000     0.724290000000     0          
C141     C      0.363690000000     0.178720000000     0.702660000000     0          
O34      O      0.048300000000     0.103200000000     0.137290000000     0          
O35      O      0.442000000000     0.401060000000     0.116380000000     0          
O36      O      0.483900000000     0.400100000000     0.782510000000     0          
O37      O      0.470760000000     0.037250000000     0.810890000000     0          
O38      O      0.417300000000     0.503500000000     0.867320000000     0          
O39      O      0.395810000000     0.390230000000     0.141550000000     0          
O40      O      0.521270000000     0.062820000000     0.785850000000     0          
O41      O      0.432540000000     0.371620000000     0.806880000000     0          
O42      O      0.097500000000     0.065060000000     0.527130000000     0          
O43      O      0.549700000000     0.437000000000     0.861890000000     0          
O44      O      0.020470000000     0.045710000000     0.088560000000     0          
O45      O      0.476720000000     0.516620000000     0.830650000000     0          
O46      O      0.978220000000     0.961030000000     0.087110000000     0          
O47      O      0.477870000000     0.042690000000     0.863240000000     0          
O48      O      0.415400000000     0.502700000000     0.799820000000     0          
O49      O      0.076400000000     0.013900000000     0.551700000000     0          
O50      O      0.501420000000     0.497750000000     0.863990000000     0          
C142     C      0.495000000000     0.057500000000     0.882200000000     0          
O51      O      0.542300000000     0.437300000000     0.794500000000     0          
O52      O      0.456000000000     0.438800000000     0.792040000000     0          
O53      O      0.525300000000     0.062400000000     0.884310000000     0          
C143     C      0.439320000000     0.130700000000     0.735880000000     0          
H79      H      0.454500000000     0.151500000000     0.727800000000     0          
C144     C      0.404290000000     0.118300000000     0.734490000000     0          
C145     C      0.381630000000     0.087250000000     0.746600000000     0          
H80      H      0.358200000000     0.079000000000     0.745700000000     0          
C146     C      0.394000000000     0.068600000000     0.760120000000     0          
H81      H      0.378800000000     0.047800000000     0.768200000000     0          
C147     C      0.429030000000     0.081000000000     0.761510000000     0          
C148     C      0.451690000000     0.112050000000     0.749390000000     0          
C149     C      0.486730000000     0.124450000000     0.750780000000     0          
H82      H      0.501900000000     0.145200000000     0.742700000000     0          
C150     C      0.499100000000     0.105800000000     0.764290000000     0          
H83      H      0.522500000000     0.114100000000     0.765200000000     0          
C151     C      0.476440000000     0.074750000000     0.776410000000     0          
C152     C      0.441400000000     0.062350000000     0.775020000000     0          
H84      H      0.426200000000     0.041600000000     0.783100000000     0          
C153     C      0.099000000000     0.046400000000     0.546400000000     0          
C154     C      0.097100000000     0.058400000000     0.123700000000     0          
O54      O      0.488810000000     0.431450000000     0.830530000000     0          
C155     C      0.291800000000     0.124500000000     0.681600000000     0          
H85      H      0.289700000000     0.141800000000     0.691800000000     0          
H86      H      0.287200000000     0.105500000000     0.693400000000     0          
C156     C      0.794100000000     0.169700000000     0.984300000000     0          
H87      H      0.770300000000     0.152300000000     0.986200000000     0          
H88      H      0.795300000000     0.189700000000     0.975800000000     0          
C157     C      0.268100000000     0.112500000000     0.655300000000     0          
H89      H      0.245800000000     0.093000000000     0.659200000000     0          
H90      H      0.265200000000     0.131000000000     0.648100000000     0          
C158     C      0.491000000000     0.056500000000     0.792900000000     0          
C159     C      0.457900000000     0.372800000000     0.790800000000     0          
C160     C      0.410100000000     0.380900000000     0.125500000000     0          
C161     C      0.468420000000     0.309410000000     0.749690000000     0          
H91      H      0.485900000000     0.307500000000     0.741400000000     0          
C162     C      0.475720000000     0.339380000000     0.763170000000     0          
H92      H      0.498100000000     0.357600000000     0.763900000000     0          
C163     C      0.449600000000     0.342180000000     0.775620000000     0          
C164     C      0.416140000000     0.315020000000     0.774590000000     0          
H93      H      0.398600000000     0.316900000000     0.782900000000     0          
C165     C      0.408840000000     0.285050000000     0.761110000000     0          
C166     C      0.434980000000     0.282240000000     0.748660000000     0          
C167     C      0.427690000000     0.252280000000     0.735190000000     0          
H94      H      0.445200000000     0.250400000000     0.726900000000     0          
C168     C      0.394200000000     0.225110000000     0.734160000000     0          
C169     C      0.368110000000     0.227910000000     0.746600000000     0          
H95      H      0.345700000000     0.209700000000     0.745900000000     0          
C170     C      0.375400000000     0.257880000000     0.760080000000     0          
H96      H      0.357900000000     0.259800000000     0.768400000000     0          
C171     C      0.951900000000     0.052500000000     0.122300000000     0          
O55      O      0.937890000000     0.036100000000     0.140720000000     0          
C172     C      0.470420000000     0.051300000000     0.540770000000     0          
O56      O      0.983170000000     0.063470000000     0.119630000000     0          
O57      O      0.936300000000     0.440400000000     0.111960000000     0          
C173     C      0.969680000000     0.164030000000     0.086710000000     0          
H97      H      0.993200000000     0.173800000000     0.089000000000     0          
C174     C      0.956400000000     0.182760000000     0.074620000000     0          
H98      H      0.971100000000     0.205100000000     0.068900000000     0          
C175     C      0.921300000000     0.168150000000     0.071130000000     0          
C176     C      0.899420000000     0.134810000000     0.079730000000     0          
H99      H      0.875900000000     0.125000000000     0.077400000000     0          
C177     C      0.912680000000     0.116080000000     0.091830000000     0          
C178     C      0.947810000000     0.130690000000     0.095310000000     0          
C179     C      0.961070000000     0.111970000000     0.107410000000     0          
H100     H      0.984600000000     0.121700000000     0.109700000000     0          
C180     C      0.939200000000     0.078620000000     0.116010000000     0          
C181     C      0.904060000000     0.064010000000     0.112520000000     0          
H101     H      0.889400000000     0.041700000000     0.118300000000     0          
C182     C      0.890800000000     0.082740000000     0.100430000000     0          
H102     H      0.867300000000     0.073000000000     0.098100000000     0          
O58      O      0.502000000000     0.062270000000     0.550070000000     0          
O59      O      0.455570000000     0.028880000000     0.523200000000     0          
C183     C      0.951500000000     0.424200000000     0.116700000000     0          
O60      O      0.969600000000     0.427350000000     0.135780000000     0          
Zr2C     Zr     0.999980000000     0.471760000000     0.502863000000     0          
Zr4C     Zr     0.019500000000     0.044100000000     0.203203000000     0          
Zr5C     Zr     0.974450000000     0.953750000000     0.201613000000     0          
Zr6C     Zr     0.056390000000     0.544810000000     0.466183000000     0          
Zr7C     Zr     0.022890000000     0.588980000000     0.501013000000     0          
Zr8C     Zr     0.967380000000     0.515890000000     0.537433000000     0          
Zr9C     Zr     0.056350000000     0.546110000000     0.537803000000     0          
Zr10C    Zr     0.967120000000     0.514470000000     0.466083000000     0          
P1C      P      0.147020000000     0.769660000000     0.330973000000     0          
P2C      P      0.284050000000     0.908250000000     0.667803000000     0          
O1C      O      0.967560000000     0.998360000000     0.205233000000     0          
O2C      O      0.991750000000     0.039720000000     0.166723000000     0          
P3C      P      0.754980000000     0.854730000000     0.333003000000     0          
O3C      O      0.014400000000     0.557100000000     0.461753000000     0          
O4C      O      0.556100000000     0.958300000000     0.449333000000     0          
O5C      O      0.023820000000     0.001570000000     0.201703000000     0          
O6C      O      0.970890000000     0.516260000000     0.421763000000     0          
O7C      O      0.003680000000     0.502740000000     0.540183000000     0          
O8C      O      0.047200000000     0.046330000000     0.166523000000     0          
O9C      O      0.974600000000     0.520800000000     0.581953000000     0          
O10C     O      0.053090000000     0.515240000000     0.503853000000     0          
O11C     O      0.062130000000     0.628950000000     0.474683000000     0          
O12C     O      0.170830000000     0.791850000000     0.308163000000     0          
O13C     O      0.729160000000     0.831170000000     0.355843000000     0          
O14C     O      0.261940000000     0.905540000000     0.644943000000     0          
O15C     O      0.257140000000     0.881220000000     0.690073000000     0          
O16C     O      0.979660000000     0.543320000000     0.502463000000     0          
O17C     O      0.300790000000     0.942880000000     0.678003000000     0          
O18C     O      0.727990000000     0.853480000000     0.310603000000     0          
C1C      C      0.654000000000     0.804900000000     0.333833000000     0          
O19C     O      0.059880000000     0.964750000000     0.192073000000     0          
O20C     O      0.152610000000     0.797480000000     0.352743000000     0          
C2C      C      0.628100000000     0.746300000000     0.319233000000     0          
H1C      H      0.626300000000     0.724300000000     0.322630000000     0          
H2C      H      0.606600000000     0.742400000000     0.311630000000     0          
O21C     O      0.049300000000     0.104100000000     0.199293000000     0          
O22C     O      0.304330000000     0.889990000000     0.662633000000     0          
C3C      C      0.142250000000     0.858470000000     0.272883000000     0          
C4C      C      0.164780000000     0.869000000000     0.294723000000     0          
C5C      C      0.175450000000     0.847300000000     0.305273000000     0          
C6C      C      0.163620000000     0.815080000000     0.293973000000     0          
C7C      C      0.141090000000     0.804550000000     0.272133000000     0          
C8C      C      0.130410000000     0.826240000000     0.261583000000     0          
H3C      H      0.115300000000     0.819200000000     0.246930000000     0          
O23C     O      0.161600000000     0.747900000000     0.341193000000     0          
C9C      C      0.369520000000     0.955290000000     0.779233000000     0          
H4C      H      0.379900000000     0.976200000000     0.788230000000     0          
C10C     C      0.385420000000     0.935690000000     0.778443000000     0          
C11C     C      0.369820000000     0.904380000000     0.765043000000     0          
H5C      H      0.380500000000     0.891300000000     0.764530000000     0          
C12C     C      0.338340000000     0.892680000000     0.752433000000     0          
H6C      H      0.327900000000     0.871700000000     0.743430000000     0          
C13C     C      0.322450000000     0.912280000000     0.753223000000     0          
C14C     C      0.338040000000     0.943590000000     0.766623000000     0          
C15C     C      0.322150000000     0.963190000000     0.767413000000     0          
H7C      H      0.332500000000     0.984100000000     0.776330000000     0          
C16C     C      0.290670000000     0.951490000000     0.754803000000     0          
H8C      H      0.280000000000     0.964600000000     0.755330000000     0          
C17C     C      0.275090000000     0.920190000000     0.741403000000     0          
C18C     C      0.290970000000     0.900580000000     0.740603000000     0          
H9C      H      0.280500000000     0.879600000000     0.731630000000     0          
O24C     O      0.905890000000     0.939050000000     0.471803000000     0          
O25C     O      0.010690000000     0.935810000000     0.215613000000     0          
C19C     C      0.156200000000     0.801000000000     0.648833000000     0          
H10C     H      0.156300000000     0.780600000000     0.654930000000     0          
H11C     H      0.134600000000     0.794300000000     0.639930000000     0          
O26C     O      0.052470000000     0.542290000000     0.421413000000     0          
C20C     C      0.242440000000     0.865900000000     0.358063000000     0          
C21C     C      0.252920000000     0.856390000000     0.381403000000     0          
C22C     C      0.229870000000     0.827370000000     0.395723000000     0          
H12C     H      0.236900000000     0.821000000000     0.411330000000     0          
C23C     C      0.196310000000     0.807850000000     0.386693000000     0          
C24C     C      0.185820000000     0.817360000000     0.363353000000     0          
C25C     C      0.208880000000     0.846380000000     0.349033000000     0          
O27C     O      0.774000000000     0.894900000000     0.343033000000     0          
O28C     O      0.111200000000     0.752900000000     0.321683000000     0          
C26C     C      0.086000000000     0.628400000000     0.459933000000     0          
C27C     C      0.190700000000     0.892400000000     0.336733000000     0          
H13C     H      0.171000000000     0.881400000000     0.348730000000     0          
H14C     H      0.208800000000     0.912300000000     0.345830000000     0          
C28C     C      0.129980000000     0.719780000000     0.246713000000     0          
H15C     H      0.142600000000     0.708800000000     0.244630000000     0          
C29C     C      0.145290000000     0.752670000000     0.257413000000     0          
H16C     H      0.168200000000     0.763700000000     0.262430000000     0          
C30C     C      0.126330000000     0.769030000000     0.260553000000     0          
C31C     C      0.092070000000     0.752510000000     0.252983000000     0          
H17C     H      0.079400000000     0.763500000000     0.255130000000     0          
C32C     C      0.076760000000     0.719620000000     0.242283000000     0          
C33C     C      0.095710000000     0.703260000000     0.239143000000     0          
C34C     C      0.080400000000     0.670370000000     0.228443000000     0          
H18C     H      0.093100000000     0.659400000000     0.226330000000     0          
C35C     C      0.046130000000     0.653840000000     0.220873000000     0          
C36C     C      0.027180000000     0.670210000000     0.224013000000     0          
H19C     H      0.004300000000     0.659200000000     0.218930000000     0          
C37C     C      0.042490000000     0.703100000000     0.234713000000     0          
H20C     H      0.029900000000     0.714100000000     0.236830000000     0          
C38C     C      0.639860000000     0.673870000000     0.240103000000     0          
H21C     H      0.650200000000     0.663000000000     0.231430000000     0          
C39C     C      0.659950000000     0.705350000000     0.252623000000     0          
H22C     H      0.683700000000     0.715500000000     0.252330000000     0          
C40C     C      0.644600000000     0.721640000000     0.265503000000     0          
C41C     C      0.609150000000     0.706450000000     0.265863000000     0          
H23C     H      0.598900000000     0.717400000000     0.274530000000     0          
C42C     C      0.589060000000     0.674970000000     0.253343000000     0          
C43C     C      0.604410000000     0.658670000000     0.240463000000     0          
C44C     C      0.584320000000     0.627190000000     0.227943000000     0          
H24C     H      0.594600000000     0.616300000000     0.219330000000     0          
C45C     C      0.548870000000     0.612000000000     0.228303000000     0          
C46C     C      0.533510000000     0.628290000000     0.241193000000     0          
H25C     H      0.509800000000     0.618100000000     0.241430000000     0          
C47C     C      0.553600000000     0.659770000000     0.253703000000     0          
H26C     H      0.543400000000     0.670700000000     0.262330000000     0          
O29C     O      0.925380000000     0.988000000000     0.450863000000     0          
C48C     C      0.241070000000     0.907600000000     0.726673000000     0          
C49C     C      0.232430000000     0.888420000000     0.702913000000     0          
C50C     C      0.203940000000     0.882980000000     0.688053000000     0          
C51C     C      0.184110000000     0.896720000000     0.696943000000     0          
C52C     C      0.192760000000     0.915910000000     0.720703000000     0          
C53C     C      0.221250000000     0.921350000000     0.735573000000     0          
H27C     H      0.227100000000     0.934200000000     0.751430000000     0          
O30C     O      0.605370000000     0.996260000000     0.471033000000     0          
C54C     C      0.593280000000     0.875740000000     0.412783000000     0          
H28C     H      0.569600000000     0.862400000000     0.414230000000     0          
C55C     C      0.611930000000     0.862080000000     0.401193000000     0          
H29C     H      0.600700000000     0.839600000000     0.394930000000     0          
C56C     C      0.647300000000     0.881970000000     0.398983000000     0          
C57C     C      0.664020000000     0.915520000000     0.408353000000     0          
H30C     H      0.687700000000     0.928800000000     0.406830000000     0          
C58C     C      0.645370000000     0.929180000000     0.419943000000     0          
C59C     C      0.610000000000     0.909290000000     0.422163000000     0          
C60C     C      0.591360000000     0.922950000000     0.433743000000     0          
H31C     H      0.567700000000     0.909600000000     0.435230000000     0          
C61C     C      0.608070000000     0.956500000000     0.443123000000     0          
C62C     C      0.643450000000     0.976400000000     0.440903000000     0          
H32C     H      0.654600000000     0.998800000000     0.447130000000     0          
C63C     C      0.662100000000     0.962740000000     0.429313000000     0          
H33C     H      0.685700000000     0.976000000000     0.427830000000     0          
O31C     O      0.056030000000     0.548940000000     0.581423000000     0          
C64C     C      0.903600000000     0.959900000000     0.455333000000     0          
C65C     C      0.107510000000     0.963520000000     0.765123000000     0          
H34C     H      0.115000000000     0.986800000000     0.765530000000     0          
C66C     C      0.075630000000     0.940260000000     0.775693000000     0          
C67C     C      0.064450000000     0.905430000000     0.775153000000     0          
H35C     H      0.043200000000     0.889900000000     0.782230000000     0          
C68C     C      0.085170000000     0.893870000000     0.764063000000     0          
H36C     H      0.077700000000     0.870600000000     0.763730000000     0          
C69C     C      0.117050000000     0.917130000000     0.753503000000     0          
C70C     C      0.128230000000     0.951960000000     0.754033000000     0          
C71C     C      0.160110000000     0.975220000000     0.743473000000     0          
H37C     H      0.167600000000     0.998500000000     0.743830000000     0          
C72C     C      0.180830000000     0.963660000000     0.732373000000     0          
H38C     H      0.202100000000     0.979200000000     0.725330000000     0          
C73C     C      0.169660000000     0.928830000000     0.731843000000     0          
C74C     C      0.137770000000     0.905570000000     0.742403000000     0          
H39C     H      0.130300000000     0.882300000000     0.742030000000     0          
C75C     C      0.117540000000     0.741470000000     0.425183000000     0          
H40C     H      0.097200000000     0.739100000000     0.431930000000     0          
C76C     C      0.140740000000     0.771370000000     0.411883000000     0          
H41C     H      0.135900000000     0.789000000000     0.409730000000     0          
C77C     C      0.171100000000     0.774880000000     0.401793000000     0          
C78C     C      0.178280000000     0.748500000000     0.405003000000     0          
H42C     H      0.198600000000     0.750900000000     0.398230000000     0          
C79C     C      0.155080000000     0.718600000000     0.418303000000     0          
C80C     C      0.124720000000     0.715090000000     0.428393000000     0          
C81C     C      0.101520000000     0.685190000000     0.441693000000     0          
H43C     H      0.081200000000     0.682800000000     0.448430000000     0          
C82C     C      0.108700000000     0.658810000000     0.444903000000     0          
C83C     C      0.139060000000     0.662320000000     0.434813000000     0          
H44C     H      0.143900000000     0.644700000000     0.436930000000     0          
C84C     C      0.162260000000     0.692220000000     0.421513000000     0          
H45C     H      0.182600000000     0.694600000000     0.414730000000     0          
O32C     O      0.776200000000     0.836600000000     0.325033000000     0          
C85C     C      0.241200000000     0.886100000000     0.314633000000     0          
H46C     H      0.245500000000     0.871200000000     0.303030000000     0          
H47C     H      0.244800000000     0.905900000000     0.304230000000     0          
C86C     C      0.186600000000     0.861200000000     0.665633000000     0          
C87C     C      0.181700000000     0.901700000000     0.310633000000     0          
H48C     H      0.202000000000     0.919000000000     0.301330000000     0          
H49C     H      0.166100000000     0.910400000000     0.313330000000     0          
C88C     C      0.044530000000     0.872880000000     0.246813000000     0          
H50C     H      0.029700000000     0.851400000000     0.254030000000     0          
C89C     C      0.031500000000     0.891660000000     0.234453000000     0          
H51C     H      0.007900000000     0.882700000000     0.233330000000     0          
C90C     C      0.053660000000     0.923790000000     0.223693000000     0          
C91C     C      0.088840000000     0.937130000000     0.225293000000     0          
H52C     H      0.103600000000     0.958600000000     0.218130000000     0          
C92C     C      0.101850000000     0.918340000000     0.237653000000     0          
C93C     C      0.079700000000     0.886220000000     0.248413000000     0          
C94C     C      0.092720000000     0.867430000000     0.260783000000     0          
H53C     H      0.077900000000     0.845900000000     0.267930000000     0          
C95C     C      0.127890000000     0.880770000000     0.262383000000     0          
C96C     C      0.150050000000     0.912900000000     0.251623000000     0          
H54C     H      0.173600000000     0.921800000000     0.252730000000     0          
C97C     C      0.137030000000     0.931680000000     0.239263000000     0          
H55C     H      0.151900000000     0.953200000000     0.232030000000     0          
C98C     C      0.632100000000     0.820900000000     0.321433000000     0          
H56C     H      0.645600000000     0.840700000000     0.310030000000     0          
H57C     H      0.611800000000     0.804200000000     0.311930000000     0          
C99C     C      0.773080000000     0.907360000000     0.407943000000     0          
H58C     H      0.766200000000     0.922500000000     0.401830000000     0          
C100C    C      0.751080000000     0.872290000000     0.405513000000     0          
C101C    C      0.761230000000     0.849590000000     0.414693000000     0          
H59C     H      0.746500000000     0.826100000000     0.413030000000     0          
C102C    C      0.793370000000     0.861950000000     0.426303000000     0          
H60C     H      0.800200000000     0.846800000000     0.432430000000     0          
C103C    C      0.815360000000     0.897010000000     0.428733000000     0          
C104C    C      0.805220000000     0.919710000000     0.419553000000     0          
C105C    C      0.827220000000     0.954780000000     0.421993000000     0          
H61C     H      0.820500000000     0.970000000000     0.415830000000     0          
C106C    C      0.859350000000     0.967130000000     0.433593000000     0          
H62C     H      0.874100000000     0.990600000000     0.435230000000     0          
C107C    C      0.869500000000     0.944430000000     0.442773000000     0          
C108C    C      0.847510000000     0.909370000000     0.440343000000     0          
H63C     H      0.854300000000     0.894200000000     0.446430000000     0          
C109C    C      0.655560000000     0.843310000000     0.366123000000     0          
C110C    C      0.675570000000     0.829970000000     0.356793000000     0          
C111C    C      0.706780000000     0.839460000000     0.369123000000     0          
C112C    C      0.717970000000     0.862280000000     0.390773000000     0          
C113C    C      0.697950000000     0.875610000000     0.400103000000     0          
H64C     H      0.705500000000     0.890900000000     0.414630000000     0          
C114C    C      0.666740000000     0.866120000000     0.387773000000     0          
C115C    C      0.203600000000     0.866100000000     0.327433000000     0          
O33C     O      0.084700000000     0.598800000000     0.450873000000     0          
C116C    C      0.675850000000     0.799120000000     0.310503000000     0          
C117C    C      0.655740000000     0.766010000000     0.300713000000     0          
C118C    C      0.667080000000     0.754700000000     0.278943000000     0          
C119C    C      0.698530000000     0.776500000000     0.266963000000     0          
H65C     H      0.706100000000     0.768900000000     0.252430000000     0          
C120C    C      0.718600000000     0.809600000000     0.276763000000     0          
C121C    C      0.707300000000     0.820920000000     0.298523000000     0          
C122C    C      0.262600000000     0.896100000000     0.339033000000     0          
H66C     H      0.265200000000     0.917100000000     0.346730000000     0          
H67C     H      0.285000000000     0.899200000000     0.335130000000     0          
C123C    C      0.310830000000     0.864580000000     0.395653000000     0          
H68C     H      0.304600000000     0.842900000000     0.389030000000     0          
C124C    C      0.289610000000     0.878230000000     0.391303000000     0          
C125C    C      0.298840000000     0.910570000000     0.401193000000     0          
H69C     H      0.284600000000     0.919700000000     0.398230000000     0          
C126C    C      0.329300000000     0.929270000000     0.415413000000     0          
H70C     H      0.335500000000     0.950900000000     0.422030000000     0          
C127C    C      0.350530000000     0.915630000000     0.419763000000     0          
C128C    C      0.341290000000     0.883280000000     0.409883000000     0          
C129C    C      0.362520000000     0.869640000000     0.414223000000     0          
H71C     H      0.356300000000     0.848000000000     0.407630000000     0          
C130C    C      0.392990000000     0.888340000000     0.428453000000     0          
H72C     H      0.407200000000     0.879200000000     0.431330000000     0          
C131C    C      0.402210000000     0.920680000000     0.438333000000     0          
C132C    C      0.380990000000     0.934330000000     0.433983000000     0          
H73C     H      0.387200000000     0.956000000000     0.440630000000     0          
C133C    C      0.635800000000     0.766800000000     0.346033000000     0          
H74C     H      0.651100000000     0.763300000000     0.357730000000     0          
H75C     H      0.615100000000     0.761300000000     0.355930000000     0          
C134C    C      0.162400000000     0.825600000000     0.672733000000     0          
H76C     H      0.140800000000     0.823700000000     0.678030000000     0          
H77C     H      0.171100000000     0.818900000000     0.688130000000     0          
C135C    C      0.588900000000     0.972000000000     0.455033000000     0          
C136C    C      0.207100000000     0.852410000000     0.642933000000     0          
C137C    C      0.240500000000     0.871940000000     0.633573000000     0          
C138C    C      0.251760000000     0.860340000000     0.611943000000     0          
C139C    C      0.229630000000     0.829220000000     0.599683000000     0          
H78C     H      0.237200000000     0.821500000000     0.585230000000     0          
C140C    C      0.196180000000     0.809680000000     0.609043000000     0          
C141C    C      0.184970000000     0.821280000000     0.630673000000     0          
O34C     O      0.945100000000     0.896800000000     0.196043000000     0          
O35C     O      0.040940000000     0.598940000000     0.216953000000     0          
O36C     O      0.083800000000     0.599900000000     0.550823000000     0          
O37C     O      0.433510000000     0.962750000000     0.522443000000     0          
O38C     O      0.913800000000     0.496500000000     0.466013000000     0          
O39C     O      0.005580000000     0.609770000000     0.191783000000     0          
O40C     O      0.458450000000     0.937180000000     0.547483000000     0          
O41C     O      0.060920000000     0.628380000000     0.526453000000     0          
O42C     O      0.032440000000     0.934940000000     0.806203000000     0          
O43C     O      0.112700000000     0.563000000000     0.471443000000     0          
O44C     O      0.974760000000     0.954290000000     0.244773000000     0          
O45C     O      0.960100000000     0.483380000000     0.502683000000     0          
O46C     O      0.017190000000     0.038970000000     0.246223000000     0          
O47C     O      0.435180000000     0.957310000000     0.470093000000     0          
O48C     O      0.912700000000     0.497300000000     0.533513000000     0          
O49C     O      0.062500000000     0.986100000000     0.781633000000     0          
O50C     O      0.003670000000     0.502250000000     0.469343000000     0          
C142C    C      0.437500000000     0.942500000000     0.451133000000     0          
O51C     O      0.105000000000     0.562700000000     0.538833000000     0          
O52C     O      0.017200000000     0.561200000000     0.541293000000     0          
O53C     O      0.462900000000     0.937600000000     0.449023000000     0          
C143C    C      0.308620000000     0.869300000000     0.597453000000     0          
H79C     H      0.303000000000     0.848500000000     0.605530000000     0          
C144C    C      0.285990000000     0.881700000000     0.598843000000     0          
C145C    C      0.294380000000     0.912750000000     0.586733000000     0          
H80C     H      0.279200000000     0.921000000000     0.587630000000     0          
C146C    C      0.325400000000     0.931400000000     0.573213000000     0          
H81C     H      0.331000000000     0.952200000000     0.565130000000     0          
C147C    C      0.348030000000     0.919000000000     0.571823000000     0          
C148C    C      0.339640000000     0.887950000000     0.583943000000     0          
C149C    C      0.362280000000     0.875550000000     0.582553000000     0          
H82C     H      0.356700000000     0.854800000000     0.590630000000     0          
C150C    C      0.393300000000     0.894200000000     0.569043000000     0          
H83C     H      0.408400000000     0.885900000000     0.568130000000     0          
C151C    C      0.401690000000     0.925250000000     0.556923000000     0          
C152C    C      0.379050000000     0.937650000000     0.558313000000     0          
H84C     H      0.384600000000     0.958400000000     0.550230000000     0          
C153C    C      0.052600000000     0.953600000000     0.786933000000     0          
C154C    C      0.038700000000     0.941600000000     0.209633000000     0          
O54C     O      0.057360000000     0.568550000000     0.502803000000     0          
C155C    C      0.167300000000     0.875500000000     0.651733000000     0          
H85C     H      0.147900000000     0.858200000000     0.641530000000     0          
H86C     H      0.181700000000     0.894500000000     0.639930000000     0          
C156C    C      0.624400000000     0.830300000000     0.349033000000     0          
H87C     H      0.618000000000     0.847700000000     0.347130000000     0          
H88C     H      0.605600000000     0.810300000000     0.357530000000     0          
C157C    C      0.155600000000     0.887500000000     0.678033000000     0          
H89C     H      0.152800000000     0.907000000000     0.674130000000     0          
H90C     H      0.134200000000     0.869000000000     0.685230000000     0          
C158C    C      0.434500000000     0.943500000000     0.540433000000     0          
C159C    C      0.085100000000     0.627200000000     0.542533000000     0          
C160C    C      0.029200000000     0.619100000000     0.207833000000     0          
C161C    C      0.159010000000     0.690590000000     0.583643000000     0          
H91C     H      0.178400000000     0.692500000000     0.591930000000     0          
C162C    C      0.136340000000     0.660620000000     0.570163000000     0          
H92C     H      0.140500000000     0.642400000000     0.569430000000     0          
C163C    C      0.107420000000     0.657820000000     0.557713000000     0          
C164C    C      0.101120000000     0.684980000000     0.558743000000     0          
H93C     H      0.081700000000     0.683100000000     0.550430000000     0          
C165C    C      0.123790000000     0.714950000000     0.572223000000     0          
C166C    C      0.152740000000     0.717760000000     0.584673000000     0          
C167C    C      0.175410000000     0.747720000000     0.598143000000     0          
H94C     H      0.194800000000     0.749600000000     0.606430000000     0          
C168C    C      0.169090000000     0.774890000000     0.599173000000     0          
C169C    C      0.140200000000     0.772090000000     0.586733000000     0          
H95C     H      0.136000000000     0.790300000000     0.587430000000     0          
C170C    C      0.117520000000     0.742120000000     0.573253000000     0          
H96C     H      0.098100000000     0.740200000000     0.564930000000     0          
C171C    C      0.899400000000     0.947500000000     0.211033000000     0          
O55C     O      0.901790000000     0.963900000000     0.192613000000     0          
C172C    C      0.419120000000     0.948700000000     0.792563000000     0          
O56C     O      0.919700000000     0.936530000000     0.213703000000     0          
O57C     O      0.495900000000     0.559600000000     0.221373000000     0          
C173C    C      0.805650000000     0.835970000000     0.246623000000     0          
H97C     H      0.819400000000     0.826200000000     0.244330000000     0          
C174C    C      0.773640000000     0.817240000000     0.258713000000     0          
H98C     H      0.766000000000     0.794900000000     0.264430000000     0          
C175C    C      0.753150000000     0.831850000000     0.262203000000     0          
C176C    C      0.764610000000     0.865190000000     0.253603000000     0          
H99C     H      0.750900000000     0.875000000000     0.255930000000     0          
C177C    C      0.796600000000     0.883920000000     0.241503000000     0          
C178C    C      0.817120000000     0.869310000000     0.238023000000     0          
C179C    C      0.849100000000     0.888030000000     0.225923000000     0          
H100C    H      0.862900000000     0.878300000000     0.223630000000     0          
C180C    C      0.860580000000     0.921380000000     0.217323000000     0          
C181C    C      0.840050000000     0.935990000000     0.220813000000     0          
H101C    H      0.847700000000     0.958300000000     0.215030000000     0          
C182C    C      0.808060000000     0.917260000000     0.232903000000     0          
H102C    H      0.794300000000     0.927000000000     0.235230000000     0          
O58C     O      0.439730000000     0.937730000000     0.783263000000     0          
O59C     O      0.426690000000     0.971120000000     0.810133000000     0          
C183C    C      0.527300000000     0.575800000000     0.216633000000     0          
O60C     O      0.542250000000     0.572650000000     0.197553000000     0          
Zr1A     Zr     0.000000000000     0.051590000000     0.833370000000     0          
Zr1B     Zr     0.948410000000     0.948410000000     0.500030000000     0          
Zr2A     Zr     0.471760000000     0.999980000000     0.497137000000     0          
Zr2B     Zr     0.000020000000     0.471780000000     0.163803000000     0          
Zr2D     Zr     0.471780000000     0.000020000000     0.836197000000     0          
Zr2E     Zr     0.528240000000     0.528220000000     0.169530000000     0          
Zr3A     Zr     0.000000000000     0.943210000000     0.833370000000     0          
Zr3B     Zr     0.056790000000     0.056790000000     0.500030000000     0          
Zr4A     Zr     0.044100000000     0.019500000000     0.796797000000     0          
Zr4B     Zr     0.980500000000     0.024600000000     0.463463000000     0          
Zr4D     Zr     0.024600000000     0.980500000000     0.536537000000     0          
Zr4E     Zr     0.955900000000     0.975400000000     0.869870000000     0          
Zr6A     Zr     0.544810000000     0.056390000000     0.533817000000     0          
Zr6D     Zr     0.488420000000     0.943610000000     0.799517000000     0          
Zr7A     Zr     0.588980000000     0.022890000000     0.498987000000     0          
Zr7B     Zr     0.977110000000     0.566090000000     0.165653000000     0          
Zr7D     Zr     0.566090000000     0.977110000000     0.834347000000     0          
Zr7E     Zr     0.411020000000     0.433910000000     0.167680000000     0          
Zr8A     Zr     0.515890000000     0.967380000000     0.462567000000     0          
Zr8D     Zr     0.548510000000     0.032620000000     0.870767000000     0          
Zr9B     Zr     0.943650000000     0.489760000000     0.128863000000     0          
Zr9E     Zr     0.453890000000     0.510240000000     0.204470000000     0          
Zr10A    Zr     0.514470000000     0.967120000000     0.533917000000     0          
Zr10B    Zr     0.032880000000     0.547350000000     0.200583000000     0          
Zr10D    Zr     0.547350000000     0.032880000000     0.799417000000     0          
Zr10E    Zr     0.485530000000     0.452650000000     0.132750000000     0          
O4A      O      0.958300000000     0.556100000000     0.550667000000     0          
O4D      O      0.402200000000     0.443900000000     0.782667000000     0          
O24B     O      0.094110000000     0.033160000000     0.194863000000     0          
O24E     O      0.060950000000     0.966840000000     0.138470000000     0          
O29B     O      0.074620000000     0.062620000000     0.215803000000     0          
O29E     O      0.012000000000     0.937380000000     0.117530000000     0          
O30A     O      0.996260000000     0.605370000000     0.528967000000     0          
O30D     O      0.390890000000     0.394630000000     0.804367000000     0          
O35B     O      0.959060000000     0.558000000000     0.449713000000     0          
O35E     O      0.401060000000     0.442000000000     0.883620000000     0          
O37A     O      0.962750000000     0.433510000000     0.477557000000     0          
O37D     O      0.529240000000     0.566490000000     0.855777000000     0          
O39B     O      0.994420000000     0.604190000000     0.474883000000     0          
O39E     O      0.390230000000     0.395810000000     0.858450000000     0          
O40A     O      0.937180000000     0.458450000000     0.452517000000     0          
O40D     O      0.478730000000     0.541550000000     0.880817000000     0          
O42A     O      0.934940000000     0.032440000000     0.193797000000     0          
O42D     O      0.902500000000     0.967560000000     0.139537000000     0          
O47A     O      0.957310000000     0.435180000000     0.529907000000     0          
O47D     O      0.522130000000     0.564820000000     0.803427000000     0          
O49A     O      0.986100000000     0.062500000000     0.218367000000     0          
O49D     O      0.923600000000     0.937500000000     0.114967000000     0          
O53A     O      0.937600000000     0.462900000000     0.550977000000     0          
O53D     O      0.474700000000     0.537100000000     0.782357000000     0          
O57A     O      0.559600000000     0.495900000000     0.778627000000     0          
O57D     O      0.063700000000     0.504100000000     0.554707000000     0          
O58B     O      0.560270000000     0.498000000000     0.883403000000     0          
O58E     O      0.062270000000     0.502000000000     0.449930000000     0          
O59B     O      0.573310000000     0.544430000000     0.856533000000     0          
O59E     O      0.028880000000     0.455570000000     0.476800000000     0          
O60A     O      0.572650000000     0.542250000000     0.802447000000     0          
O60D     O      0.030400000000     0.457750000000     0.530887000000     0          
Zr5      Zr     0.953750000000     0.974450000000     0.798386666667     0          
Zr9      Zr     0.546110000000     0.056350000000     0.462196666667     0          
P1       P      0.769660000000     0.147020000000     0.669026666667     0          
P2       P      0.908250000000     0.284050000000     0.332196666667     0          
O1       O      0.998360000000     0.967560000000     0.794766666667     0          
O2       O      0.039720000000     0.991750000000     0.833276666667     0          
P3       P      0.854730000000     0.754980000000     0.666996666667     0          
O3       O      0.557100000000     0.014400000000     0.538246666667     0          
O5       O      0.001570000000     0.023820000000     0.798296666667     0          
O6       O      0.516260000000     0.970890000000     0.578236666667     0          
O7       O      0.502740000000     0.003680000000     0.459816666667     0          
O8       O      0.046330000000     0.047200000000     0.833476666667     0          
O9       O      0.520800000000     0.974600000000     0.418046666667     0          
O10      O      0.515240000000     0.053090000000     0.496146666667     0          
O11      O      0.628950000000     0.062130000000     0.525316666667     0          
O12      O      0.791850000000     0.170830000000     0.691836666667     0          
O13      O      0.831170000000     0.729160000000     0.644156666667     0          
O14      O      0.905540000000     0.261940000000     0.355056666667     0          
O15      O      0.881220000000     0.257140000000     0.309926666667     0          
O16      O      0.543320000000     0.979660000000     0.497536666667     0          
O17      O      0.942880000000     0.300790000000     0.321996666667     0          
O18      O      0.853480000000     0.727990000000     0.689396666667     0          
C1       C      0.804900000000     0.654000000000     0.666166666667     0          
O19      O      0.964750000000     0.059880000000     0.807926666667     0          
O20      O      0.797480000000     0.152610000000     0.647256666667     0          
C2       C      0.746300000000     0.628100000000     0.680766666667     0          
H1       H      0.724300000000     0.626300000000     0.677366666667     0          
H2       H      0.742400000000     0.606600000000     0.688366666667     0          
O21      O      0.104100000000     0.049300000000     0.800706666667     0          
O22      O      0.889990000000     0.304330000000     0.337366666667     0          
C3       C      0.858470000000     0.142250000000     0.727116666667     0          
C4       C      0.869000000000     0.164780000000     0.705276666667     0          
C5       C      0.847300000000     0.175450000000     0.694726666667     0          
C6       C      0.815080000000     0.163620000000     0.706026666667     0          
C7       C      0.804550000000     0.141090000000     0.727866666667     0          
C8       C      0.826240000000     0.130410000000     0.738416666667     0          
H3       H      0.819200000000     0.115300000000     0.753066666667     0          
O23      O      0.747900000000     0.161600000000     0.658806666667     0          
C9       C      0.955290000000     0.369520000000     0.220766666667     0          
H4       H      0.976200000000     0.379900000000     0.211766666667     0          
C10      C      0.935690000000     0.385420000000     0.221556666667     0          
C11      C      0.904380000000     0.369820000000     0.234956666667     0          
H5       H      0.891300000000     0.380500000000     0.235466666667     0          
C12      C      0.892680000000     0.338340000000     0.247566666667     0          
H6       H      0.871700000000     0.327900000000     0.256566666667     0          
C13      C      0.912280000000     0.322450000000     0.246776666667     0          
C14      C      0.943590000000     0.338040000000     0.233376666667     0          
C15      C      0.963190000000     0.322150000000     0.232586666667     0          
H7       H      0.984100000000     0.332500000000     0.223666666667     0          
C16      C      0.951490000000     0.290670000000     0.245196666667     0          
H8       H      0.964600000000     0.280000000000     0.244666666667     0          
C17      C      0.920190000000     0.275090000000     0.258596666667     0          
C18      C      0.900580000000     0.290970000000     0.259396666667     0          
H9       H      0.879600000000     0.280500000000     0.268366666667     0          
O24      O      0.939050000000     0.905890000000     0.528196666667     0          
O25      O      0.935810000000     0.010690000000     0.784386666667     0          
C19      C      0.801000000000     0.156200000000     0.351166666667     0          
H10      H      0.780600000000     0.156300000000     0.345066666667     0          
H11      H      0.794300000000     0.134600000000     0.360066666667     0          
O26      O      0.542290000000     0.052470000000     0.578586666667     0          
C20      C      0.865900000000     0.242440000000     0.641936666667     0          
C21      C      0.856390000000     0.252920000000     0.618596666667     0          
C22      C      0.827370000000     0.229870000000     0.604276666667     0          
H12      H      0.821000000000     0.236900000000     0.588666666667     0          
C23      C      0.807850000000     0.196310000000     0.613306666667     0          
C24      C      0.817360000000     0.185820000000     0.636646666667     0          
C25      C      0.846380000000     0.208880000000     0.650966666667     0          
O27      O      0.894900000000     0.774000000000     0.656966666667     0          
O28      O      0.752900000000     0.111200000000     0.678316666667     0          
C26      C      0.628400000000     0.086000000000     0.540066666667     0          
C27      C      0.892400000000     0.190700000000     0.663266666667     0          
H13      H      0.881400000000     0.171000000000     0.651266666667     0          
H14      H      0.912300000000     0.208800000000     0.654166666667     0          
C28      C      0.719780000000     0.129980000000     0.753286666667     0          
H15      H      0.708800000000     0.142600000000     0.755366666667     0          
C29      C      0.752670000000     0.145290000000     0.742586666667     0          
H16      H      0.763700000000     0.168200000000     0.737566666667     0          
C30      C      0.769030000000     0.126330000000     0.739446666667     0          
C31      C      0.752510000000     0.092070000000     0.747016666667     0          
H17      H      0.763500000000     0.079400000000     0.744866666667     0          
C32      C      0.719620000000     0.076760000000     0.757716666667     0          
C33      C      0.703260000000     0.095710000000     0.760856666667     0          
C34      C      0.670370000000     0.080400000000     0.771556666667     0          
H18      H      0.659400000000     0.093100000000     0.773666666667     0          
C35      C      0.653840000000     0.046130000000     0.779126666667     0          
C36      C      0.670210000000     0.027180000000     0.775986666667     0          
H19      H      0.659200000000     0.004300000000     0.781066666667     0          
C37      C      0.703100000000     0.042490000000     0.765286666667     0          
H20      H      0.714100000000     0.029900000000     0.763166666667     0          
C38      C      0.673870000000     0.639860000000     0.759896666667     0          
H21      H      0.663000000000     0.650200000000     0.768566666667     0          
C39      C      0.705350000000     0.659950000000     0.747376666667     0          
H22      H      0.715500000000     0.683700000000     0.747666666667     0          
C40      C      0.721640000000     0.644600000000     0.734496666667     0          
C41      C      0.706450000000     0.609150000000     0.734136666667     0          
H23      H      0.717400000000     0.598900000000     0.725466666667     0          
C42      C      0.674970000000     0.589060000000     0.746656666667     0          
C43      C      0.658670000000     0.604410000000     0.759536666667     0          
C44      C      0.627190000000     0.584320000000     0.772056666667     0          
H24      H      0.616300000000     0.594600000000     0.780666666667     0          
C45      C      0.612000000000     0.548870000000     0.771696666667     0          
C46      C      0.628290000000     0.533510000000     0.758806666667     0          
H25      H      0.618100000000     0.509800000000     0.758566666667     0          
C47      C      0.659770000000     0.553600000000     0.746296666667     0          
H26      H      0.670700000000     0.543400000000     0.737666666667     0          
O29      O      0.988000000000     0.925380000000     0.549136666667     0          
C48      C      0.907600000000     0.241070000000     0.273326666667     0          
C49      C      0.888420000000     0.232430000000     0.297086666667     0          
C50      C      0.882980000000     0.203940000000     0.311946666667     0          
C51      C      0.896720000000     0.184110000000     0.303056666667     0          
C52      C      0.915910000000     0.192760000000     0.279296666667     0          
C53      C      0.921350000000     0.221250000000     0.264426666667     0          
H27      H      0.934200000000     0.227100000000     0.248566666667     0          
C54      C      0.875740000000     0.593280000000     0.587216666667     0          
H28      H      0.862400000000     0.569600000000     0.585766666667     0          
C55      C      0.862080000000     0.611930000000     0.598806666667     0          
H29      H      0.839600000000     0.600700000000     0.605066666667     0          
C56      C      0.881970000000     0.647300000000     0.601016666667     0          
C57      C      0.915520000000     0.664020000000     0.591646666667     0          
H30      H      0.928800000000     0.687700000000     0.593166666667     0          
C58      C      0.929180000000     0.645370000000     0.580056666667     0          
C59      C      0.909290000000     0.610000000000     0.577836666667     0          
C60      C      0.922950000000     0.591360000000     0.566256666667     0          
H31      H      0.909600000000     0.567700000000     0.564766666667     0          
C61      C      0.956500000000     0.608070000000     0.556876666667     0          
C62      C      0.976400000000     0.643450000000     0.559096666667     0          
H32      H      0.998800000000     0.654600000000     0.552866666667     0          
C63      C      0.962740000000     0.662100000000     0.570686666667     0          
H33      H      0.976000000000     0.685700000000     0.572166666667     0          
O31      O      0.548940000000     0.056030000000     0.418576666667     0          
C64      C      0.959900000000     0.903600000000     0.544666666667     0          
C65      C      0.963520000000     0.107510000000     0.234876666667     0          
H34      H      0.986800000000     0.115000000000     0.234466666667     0          
C66      C      0.940260000000     0.075630000000     0.224306666667     0          
C67      C      0.905430000000     0.064450000000     0.224846666667     0          
H35      H      0.889900000000     0.043200000000     0.217766666667     0          
C68      C      0.893870000000     0.085170000000     0.235936666667     0          
H36      H      0.870600000000     0.077700000000     0.236266666667     0          
C69      C      0.917130000000     0.117050000000     0.246496666667     0          
C70      C      0.951960000000     0.128230000000     0.245966666667     0          
C71      C      0.975220000000     0.160110000000     0.256526666667     0          
H37      H      0.998500000000     0.167600000000     0.256166666667     0          
C72      C      0.963660000000     0.180830000000     0.267626666667     0          
H38      H      0.979200000000     0.202100000000     0.274666666667     0          
C73      C      0.928830000000     0.169660000000     0.268156666667     0          
C74      C      0.905570000000     0.137770000000     0.257596666667     0          
H39      H      0.882300000000     0.130300000000     0.257966666667     0          
C75      C      0.741470000000     0.117540000000     0.574816666667     0          
H40      H      0.739100000000     0.097200000000     0.568066666667     0          
C76      C      0.771370000000     0.140740000000     0.588116666667     0          
H41      H      0.789000000000     0.135900000000     0.590266666667     0          
C77      C      0.774880000000     0.171100000000     0.598206666667     0          
C78      C      0.748500000000     0.178280000000     0.594996666667     0          
H42      H      0.750900000000     0.198600000000     0.601766666667     0          
C79      C      0.718600000000     0.155080000000     0.581696666667     0          
C80      C      0.715090000000     0.124720000000     0.571606666667     0          
C81      C      0.685190000000     0.101520000000     0.558306666667     0          
H43      H      0.682800000000     0.081200000000     0.551566666667     0          
C82      C      0.658810000000     0.108700000000     0.555096666667     0          
C83      C      0.662320000000     0.139060000000     0.565186666667     0          
H44      H      0.644700000000     0.143900000000     0.563066666667     0          
C84      C      0.692220000000     0.162260000000     0.578486666667     0          
H45      H      0.694600000000     0.182600000000     0.585266666667     0          
O32      O      0.836600000000     0.776200000000     0.674966666667     0          
C85      C      0.886100000000     0.241200000000     0.685366666667     0          
H46      H      0.871200000000     0.245500000000     0.696966666667     0          
H47      H      0.905900000000     0.244800000000     0.695766666667     0          
C86      C      0.861200000000     0.186600000000     0.334366666667     0          
C87      C      0.901700000000     0.181700000000     0.689366666667     0          
H48      H      0.919000000000     0.202000000000     0.698666666667     0          
H49      H      0.910400000000     0.166100000000     0.686666666667     0          
C88      C      0.872880000000     0.044530000000     0.753186666667     0          
H50      H      0.851400000000     0.029700000000     0.745966666667     0          
C89      C      0.891660000000     0.031500000000     0.765546666667     0          
H51      H      0.882700000000     0.007900000000     0.766666666667     0          
C90      C      0.923790000000     0.053660000000     0.776306666667     0          
C91      C      0.937130000000     0.088840000000     0.774706666667     0          
H52      H      0.958600000000     0.103600000000     0.781866666667     0          
C92      C      0.918340000000     0.101850000000     0.762346666667     0          
C93      C      0.886220000000     0.079700000000     0.751586666667     0          
C94      C      0.867430000000     0.092720000000     0.739216666667     0          
H53      H      0.845900000000     0.077900000000     0.732066666667     0          
C95      C      0.880770000000     0.127890000000     0.737616666667     0          
C96      C      0.912900000000     0.150050000000     0.748376666667     0          
H54      H      0.921800000000     0.173600000000     0.747266666667     0          
C97      C      0.931680000000     0.137030000000     0.760736666667     0          
H55      H      0.953200000000     0.151900000000     0.767966666667     0          
C98      C      0.820900000000     0.632100000000     0.678566666667     0          
H56      H      0.840700000000     0.645600000000     0.689966666667     0          
H57      H      0.804200000000     0.611800000000     0.688066666667     0          
C99      C      0.907360000000     0.773080000000     0.592056666667     0          
H58      H      0.922500000000     0.766200000000     0.598166666667     0          
C100     C      0.872290000000     0.751080000000     0.594486666667     0          
C101     C      0.849590000000     0.761230000000     0.585306666667     0          
H59      H      0.826100000000     0.746500000000     0.586966666667     0          
C102     C      0.861950000000     0.793370000000     0.573696666667     0          
H60      H      0.846800000000     0.800200000000     0.567566666667     0          
C103     C      0.897010000000     0.815360000000     0.571266666667     0          
C104     C      0.919710000000     0.805220000000     0.580446666667     0          
C105     C      0.954780000000     0.827220000000     0.578006666667     0          
H61      H      0.970000000000     0.820500000000     0.584166666667     0          
C106     C      0.967130000000     0.859350000000     0.566406666667     0          
H62      H      0.990600000000     0.874100000000     0.564766666667     0          
C107     C      0.944430000000     0.869500000000     0.557226666667     0          
C108     C      0.909370000000     0.847510000000     0.559656666667     0          
H63      H      0.894200000000     0.854300000000     0.553566666667     0          
C109     C      0.843310000000     0.655560000000     0.633876666667     0          
C110     C      0.829970000000     0.675570000000     0.643206666667     0          
C111     C      0.839460000000     0.706780000000     0.630876666667     0          
C112     C      0.862280000000     0.717970000000     0.609226666667     0          
C113     C      0.875610000000     0.697950000000     0.599896666667     0          
H64      H      0.890900000000     0.705500000000     0.585366666667     0          
C114     C      0.866120000000     0.666740000000     0.612226666667     0          
C115     C      0.866100000000     0.203600000000     0.672566666667     0          
O33      O      0.598800000000     0.084700000000     0.549126666667     0          
C116     C      0.799120000000     0.675850000000     0.689496666667     0          
C117     C      0.766010000000     0.655740000000     0.699286666667     0          
C118     C      0.754700000000     0.667080000000     0.721056666667     0          
C119     C      0.776500000000     0.698530000000     0.733036666667     0          
H65      H      0.768900000000     0.706100000000     0.747566666667     0          
C120     C      0.809600000000     0.718600000000     0.723236666667     0          
C121     C      0.820920000000     0.707300000000     0.701476666667     0          
C122     C      0.896100000000     0.262600000000     0.660966666667     0          
H66      H      0.917100000000     0.265200000000     0.653266666667     0          
H67      H      0.899200000000     0.285000000000     0.664866666667     0          
C123     C      0.864580000000     0.310830000000     0.604346666667     0          
H68      H      0.842900000000     0.304600000000     0.610966666667     0          
C124     C      0.878230000000     0.289610000000     0.608696666667     0          
C125     C      0.910570000000     0.298840000000     0.598806666667     0          
H69      H      0.919700000000     0.284600000000     0.601766666667     0          
C126     C      0.929270000000     0.329300000000     0.584586666667     0          
H70      H      0.950900000000     0.335500000000     0.577966666667     0          
C127     C      0.915630000000     0.350530000000     0.580236666667     0          
C128     C      0.883280000000     0.341290000000     0.590116666667     0          
C129     C      0.869640000000     0.362520000000     0.585776666667     0          
H71      H      0.848000000000     0.356300000000     0.592366666667     0          
C130     C      0.888340000000     0.392990000000     0.571546666667     0          
H72      H      0.879200000000     0.407200000000     0.568666666667     0          
C131     C      0.920680000000     0.402210000000     0.561666666667     0          
C132     C      0.934330000000     0.380990000000     0.566016666667     0          
H73      H      0.956000000000     0.387200000000     0.559366666667     0          
C133     C      0.766800000000     0.635800000000     0.653966666667     0          
H74      H      0.763300000000     0.651100000000     0.642266666667     0          
H75      H      0.761300000000     0.615100000000     0.644066666667     0          
C134     C      0.825600000000     0.162400000000     0.327266666667     0          
H76      H      0.823700000000     0.140800000000     0.321966666667     0          
H77      H      0.818900000000     0.171100000000     0.311866666667     0          
C135     C      0.972000000000     0.588900000000     0.544966666667     0          
C136     C      0.852410000000     0.207100000000     0.357066666667     0          
C137     C      0.871940000000     0.240500000000     0.366426666667     0          
C138     C      0.860340000000     0.251760000000     0.388056666667     0          
C139     C      0.829220000000     0.229630000000     0.400316666667     0          
H78      H      0.821500000000     0.237200000000     0.414766666667     0          
C140     C      0.809680000000     0.196180000000     0.390956666667     0          
C141     C      0.821280000000     0.184970000000     0.369326666667     0          
O34      O      0.896800000000     0.945100000000     0.803956666667     0          
O35      O      0.598940000000     0.040940000000     0.783046666667     0          
O36      O      0.599900000000     0.083800000000     0.449176666667     0          
O38      O      0.496500000000     0.913800000000     0.533986666667     0          
O39      O      0.609770000000     0.005580000000     0.808216666667     0          
O41      O      0.628380000000     0.060920000000     0.473546666667     0          
O43      O      0.563000000000     0.112700000000     0.528556666667     0          
O44      O      0.954290000000     0.974760000000     0.755226666667     0          
O45      O      0.483380000000     0.960100000000     0.497316666667     0          
O46      O      0.038970000000     0.017190000000     0.753776666667     0          
O48      O      0.497300000000     0.912700000000     0.466486666667     0          
O50      O      0.502250000000     0.003670000000     0.530656666667     0          
C142     C      0.942500000000     0.437500000000     0.548866666667     0          
O51      O      0.562700000000     0.105000000000     0.461166666667     0          
O52      O      0.561200000000     0.017200000000     0.458706666667     0          
C143     C      0.869300000000     0.308620000000     0.402546666667     0          
H79      H      0.848500000000     0.303000000000     0.394466666667     0          
C144     C      0.881700000000     0.285990000000     0.401156666667     0          
C145     C      0.912750000000     0.294380000000     0.413266666667     0          
H80      H      0.921000000000     0.279200000000     0.412366666667     0          
C146     C      0.931400000000     0.325400000000     0.426786666667     0          
H81      H      0.952200000000     0.331000000000     0.434866666667     0          
C147     C      0.919000000000     0.348030000000     0.428176666667     0          
C148     C      0.887950000000     0.339640000000     0.416056666667     0          
C149     C      0.875550000000     0.362280000000     0.417446666667     0          
H82      H      0.854800000000     0.356700000000     0.409366666667     0          
C150     C      0.894200000000     0.393300000000     0.430956666667     0          
H83      H      0.885900000000     0.408400000000     0.431866666667     0          
C151     C      0.925250000000     0.401690000000     0.443076666667     0          
C152     C      0.937650000000     0.379050000000     0.441686666667     0          
H84      H      0.958400000000     0.384600000000     0.449766666667     0          
C153     C      0.953600000000     0.052600000000     0.213066666667     0          
C154     C      0.941600000000     0.038700000000     0.790366666667     0          
O54      O      0.568550000000     0.057360000000     0.497196666667     0          
C155     C      0.875500000000     0.167300000000     0.348266666667     0          
H85      H      0.858200000000     0.147900000000     0.358466666667     0          
H86      H      0.894500000000     0.181700000000     0.360066666667     0          
C156     C      0.830300000000     0.624400000000     0.650966666667     0          
H87      H      0.847700000000     0.618000000000     0.652866666667     0          
H88      H      0.810300000000     0.605600000000     0.642466666667     0          
C157     C      0.887500000000     0.155600000000     0.321966666667     0          
H89      H      0.907000000000     0.152800000000     0.325866666667     0          
H90      H      0.869000000000     0.134200000000     0.314766666667     0          
C158     C      0.943500000000     0.434500000000     0.459566666667     0          
C159     C      0.627200000000     0.085100000000     0.457466666667     0          
C160     C      0.619100000000     0.029200000000     0.792166666667     0          
C161     C      0.690590000000     0.159010000000     0.416356666667     0          
H91      H      0.692500000000     0.178400000000     0.408066666667     0          
C162     C      0.660620000000     0.136340000000     0.429836666667     0          
H92      H      0.642400000000     0.140500000000     0.430566666667     0          
C163     C      0.657820000000     0.107420000000     0.442286666667     0          
C164     C      0.684980000000     0.101120000000     0.441256666667     0          
H93      H      0.683100000000     0.081700000000     0.449566666667     0          
C165     C      0.714950000000     0.123790000000     0.427776666667     0          
C166     C      0.717760000000     0.152740000000     0.415326666667     0          
C167     C      0.747720000000     0.175410000000     0.401856666667     0          
H94      H      0.749600000000     0.194800000000     0.393566666667     0          
C168     C      0.774890000000     0.169090000000     0.400826666667     0          
C169     C      0.772090000000     0.140200000000     0.413266666667     0          
H95      H      0.790300000000     0.136000000000     0.412566666667     0          
C170     C      0.742120000000     0.117520000000     0.426746666667     0          
H96      H      0.740200000000     0.098100000000     0.435066666667     0          
C171     C      0.947500000000     0.899400000000     0.788966666667     0          
O55      O      0.963900000000     0.901790000000     0.807386666667     0          
C172     C      0.948700000000     0.419120000000     0.207436666667     0          
O56      O      0.936530000000     0.919700000000     0.786296666667     0          
C173     C      0.835970000000     0.805650000000     0.753376666667     0          
H97      H      0.826200000000     0.819400000000     0.755666666667     0          
C174     C      0.817240000000     0.773640000000     0.741286666667     0          
H98      H      0.794900000000     0.766000000000     0.735566666667     0          
C175     C      0.831850000000     0.753150000000     0.737796666667     0          
C176     C      0.865190000000     0.764610000000     0.746396666667     0          
H99      H      0.875000000000     0.750900000000     0.744066666667     0          
C177     C      0.883920000000     0.796600000000     0.758496666667     0          
C178     C      0.869310000000     0.817120000000     0.761976666667     0          
C179     C      0.888030000000     0.849100000000     0.774076666667     0          
H100     H      0.878300000000     0.862900000000     0.776366666667     0          
C180     C      0.921380000000     0.860580000000     0.782676666667     0          
C181     C      0.935990000000     0.840050000000     0.779186666667     0          
H101     H      0.958300000000     0.847700000000     0.784966666667     0          
C182     C      0.917260000000     0.808060000000     0.767096666667     0          
H102     H      0.927000000000     0.794300000000     0.764766666667     0          
O58      O      0.937730000000     0.439730000000     0.216736666667     0          
O59      O      0.971120000000     0.426690000000     0.189866666667     0          
C183     C      0.575800000000     0.527300000000     0.783366666667     0          
Zr5C     Zr     0.046250000000     0.020700000000     0.868279666667     0          
Zr6C     Zr     0.455190000000     0.511580000000     0.132849666667     0          
Zr8C     Zr     0.484110000000     0.451490000000     0.204099666667     0          
P1C      P      0.230340000000     0.377360000000     0.997639666667     0          
P2C      P      0.091750000000     0.375800000000     0.334469666667     0          
O1C      O      0.001640000000     0.969200000000     0.871899666667     0          
O2C      O      0.960280000000     0.952030000000     0.833389666667     0          
P3C      P      0.145270000000     0.900250000000     0.999669666667     0          
O3C      O      0.442900000000     0.457300000000     0.128419666667     0          
O4C      O      0.041700000000     0.597800000000     0.115999666667     0          
O5C      O      0.998430000000     0.022250000000     0.868369666667     0          
O6C      O      0.483740000000     0.454630000000     0.088429666667     0          
O7C      O      0.497260000000     0.500940000000     0.206849666667     0          
O8C      O      0.953670000000     0.000870000000     0.833189666667     0          
O9C      O      0.479200000000     0.453800000000     0.248619666667     0          
O10C     O      0.484760000000     0.537850000000     0.170519666667     0          
O11C     O      0.371050000000     0.433180000000     0.141349666667     0          
O12C     O      0.208150000000     0.378980000000     0.974829666667     0          
O13C     O      0.168830000000     0.897990000000     0.022509666667     0          
O14C     O      0.094460000000     0.356400000000     0.311609666667     0          
O15C     O      0.118780000000     0.375920000000     0.356739666667     0          
O16C     O      0.456680000000     0.436340000000     0.169129666667     0          
O17C     O      0.057120000000     0.357910000000     0.344669666667     0          
O18C     O      0.146520000000     0.874510000000     0.977269666667     0          
C1C      C      0.195100000000     0.849100000000     0.000499666667     0          
O19C     O      0.035250000000     0.095130000000     0.858739666667     0          
O20C     O      0.202520000000     0.355130000000     0.019409666667     0          
C2C      C      0.253700000000     0.881800000000     0.985899666667     0          
H1C      H      0.275700000000     0.902000000000     0.989296666667     0          
H2C      H      0.257600000000     0.864200000000     0.978296666667     0          
O21C     O      0.895900000000     0.945200000000     0.865959666667     0          
O22C     O      0.110010000000     0.414340000000     0.329299666667     0          
C3C      C      0.141530000000     0.283780000000     0.939549666667     0          
C4C      C      0.131000000000     0.295780000000     0.961389666667     0          
C5C      C      0.152700000000     0.328150000000     0.971939666667     0          
C6C      C      0.184920000000     0.348540000000     0.960639666667     0          
C7C      C      0.195450000000     0.336540000000     0.938799666667     0          
C8C      C      0.173760000000     0.304170000000     0.928249666667     0          
H3C      H      0.180800000000     0.296100000000     0.913596666667     0          
O23C     O      0.252100000000     0.413700000000     0.007859666667     0          
C9C      C      0.044710000000     0.414230000000     0.445899666667     0          
H4C      H      0.023800000000     0.403700000000     0.454896666667     0          
C10C     C      0.064310000000     0.449730000000     0.445109666667     0          
C11C     C      0.095620000000     0.465440000000     0.431709666667     0          
H5C      H      0.108700000000     0.489200000000     0.431196666667     0          
C12C     C      0.107320000000     0.445660000000     0.419099666667     0          
H6C      H      0.128300000000     0.456200000000     0.410096666667     0          
C13C     C      0.087720000000     0.410170000000     0.419889666667     0          
C14C     C      0.056410000000     0.394450000000     0.433289666667     0          
C15C     C      0.036810000000     0.358960000000     0.434079666667     0          
H7C      H      0.015900000000     0.348400000000     0.442996666667     0          
C16C     C      0.048510000000     0.339180000000     0.421469666667     0          
H8C      H      0.035400000000     0.315400000000     0.421996666667     0          
C17C     C      0.079810000000     0.354900000000     0.408069666667     0          
C18C     C      0.099420000000     0.390390000000     0.407269666667     0          
H9C      H      0.120400000000     0.400900000000     0.398296666667     0          
O25C     O      0.064190000000     0.074880000000     0.882279666667     0          
C19C     C      0.199000000000     0.355200000000     0.315499666667     0          
H10C     H      0.219400000000     0.375700000000     0.321596666667     0          
H11C     H      0.205700000000     0.340300000000     0.306596666667     0          
O26C     O      0.457710000000     0.510180000000     0.088079666667     0          
C20C     C      0.134100000000     0.376540000000     0.024729666667     0          
C21C     C      0.143610000000     0.396530000000     0.048069666667     0          
C22C     C      0.172630000000     0.402500000000     0.062389666667     0          
H12C     H      0.179000000000     0.415900000000     0.077996666667     0          
C23C     C      0.192150000000     0.388460000000     0.053359666667     0          
C24C     C      0.182640000000     0.368460000000     0.030019666667     0          
C25C     C      0.153620000000     0.362500000000     0.015699666667     0          
O27C     O      0.105100000000     0.879100000000     0.009699666667     0          
O28C     O      0.247100000000     0.358300000000     0.988349666667     0          
C26C     C      0.371600000000     0.457600000000     0.126599666667     0          
C27C     C      0.107600000000     0.298300000000     0.003399666667     0          
H13C     H      0.118600000000     0.289600000000     0.015396666667     0          
H14C     H      0.087700000000     0.296500000000     0.012496666667     0          
C28C     C      0.280220000000     0.410200000000     0.913379666667     0          
H15C     H      0.291200000000     0.433800000000     0.911296666667     0          
C29C     C      0.247330000000     0.392620000000     0.924079666667     0          
H16C     H      0.236300000000     0.404500000000     0.929096666667     0          
C30C     C      0.230970000000     0.357300000000     0.927219666667     0          
C31C     C      0.247490000000     0.339560000000     0.919649666667     0          
H17C     H      0.236500000000     0.315900000000     0.921796666667     0          
C32C     C      0.280380000000     0.357140000000     0.908949666667     0          
C33C     C      0.296740000000     0.392450000000     0.905809666667     0          
C34C     C      0.329630000000     0.410030000000     0.895109666667     0          
H18C     H      0.340600000000     0.433700000000     0.892996666667     0          
C35C     C      0.346160000000     0.392290000000     0.887539666667     0          
C36C     C      0.329790000000     0.356970000000     0.890679666667     0          
H19C     H      0.340800000000     0.345100000000     0.885596666667     0          
C37C     C      0.296900000000     0.339390000000     0.901379666667     0          
H20C     H      0.285900000000     0.315800000000     0.903496666667     0          
C38C     C      0.326130000000     0.965990000000     0.906769666667     0          
H21C     H      0.337000000000     0.987200000000     0.898096666667     0          
C39C     C      0.294650000000     0.954600000000     0.919289666667     0          
H22C     H      0.284500000000     0.968200000000     0.918996666667     0          
C40C     C      0.278360000000     0.922960000000     0.932169666667     0          
C41C     C      0.293550000000     0.902700000000     0.932529666667     0          
H23C     H      0.282600000000     0.881500000000     0.941196666667     0          
C42C     C      0.325030000000     0.914090000000     0.920009666667     0          
C43C     C      0.341330000000     0.945740000000     0.907129666667     0          
C44C     C      0.372810000000     0.957130000000     0.894609666667     0          
H24C     H      0.383700000000     0.978300000000     0.885996666667     0          
C45C     C      0.388000000000     0.936870000000     0.894969666667     0          
C46C     C      0.371710000000     0.905220000000     0.907859666667     0          
H25C     H      0.381900000000     0.891700000000     0.908096666667     0          
C47C     C      0.340230000000     0.893830000000     0.920369666667     0          
H26C     H      0.329300000000     0.872700000000     0.928996666667     0          
C48C     C      0.092400000000     0.333470000000     0.393339666667     0          
C49C     C      0.111580000000     0.344010000000     0.369579666667     0          
C50C     C      0.117020000000     0.320960000000     0.354719666667     0          
C51C     C      0.103280000000     0.287390000000     0.363609666667     0          
C52C     C      0.084090000000     0.276850000000     0.387369666667     0          
C53C     C      0.078650000000     0.299900000000     0.402239666667     0          
H27C     H      0.065800000000     0.292900000000     0.418096666667     0          
O30C     O      0.003740000000     0.609110000000     0.137699666667     0          
C54C     C      0.124260000000     0.717540000000     0.079449666667     0          
H28C     H      0.137600000000     0.707200000000     0.080896666667     0          
C55C     C      0.137920000000     0.749850000000     0.067859666667     0          
H29C     H      0.160400000000     0.761100000000     0.061596666667     0          
C56C     C      0.118030000000     0.765330000000     0.065649666667     0          
C57C     C      0.084480000000     0.748500000000     0.075019666667     0          
H30C     H      0.071200000000     0.758900000000     0.073496666667     0          
C58C     C      0.070820000000     0.716190000000     0.086609666667     0          
C59C     C      0.090710000000     0.700710000000     0.088829666667     0          
C60C     C      0.077050000000     0.668410000000     0.100409666667     0          
H31C     H      0.090400000000     0.658100000000     0.101896666667     0          
C61C     C      0.043500000000     0.651570000000     0.109789666667     0          
C62C     C      0.023600000000     0.667050000000     0.107569666667     0          
H32C     H      0.001200000000     0.655800000000     0.113796666667     0          
C63C     C      0.037260000000     0.699360000000     0.095979666667     0          
H33C     H      0.024000000000     0.709700000000     0.094496666667     0          
O31C     O      0.451060000000     0.507090000000     0.248089666667     0          
C64C     C      0.040100000000     0.943700000000     0.121999666667     0          
C65C     C      0.036480000000     0.143990000000     0.431789666667     0          
H34C     H      0.013200000000     0.128200000000     0.432196666667     0          
C66C     C      0.059740000000     0.135370000000     0.442359666667     0          
C67C     C      0.094570000000     0.159020000000     0.441819666667     0          
H35C     H      0.110100000000     0.153300000000     0.448896666667     0          
C68C     C      0.106130000000     0.191300000000     0.430729666667     0          
H36C     H      0.129400000000     0.207100000000     0.430396666667     0          
C69C     C      0.082870000000     0.199920000000     0.420169666667     0          
C70C     C      0.048040000000     0.176270000000     0.420699666667     0          
C71C     C      0.024780000000     0.184890000000     0.410139666667     0          
H37C     H      0.001500000000     0.169100000000     0.410496666667     0          
C72C     C      0.036340000000     0.217170000000     0.399039666667     0          
H38C     H      0.020800000000     0.222900000000     0.391996666667     0          
C73C     C      0.071170000000     0.240830000000     0.398509666667     0          
C74C     C      0.094430000000     0.232200000000     0.409069666667     0          
H39C     H      0.117700000000     0.248000000000     0.408696666667     0          
C75C     C      0.258530000000     0.376070000000     0.091849666667     0          
H40C     H      0.260900000000     0.358100000000     0.098596666667     0          
C76C     C      0.228630000000     0.369370000000     0.078549666667     0          
H41C     H      0.211000000000     0.346900000000     0.076396666667     0          
C77C     C      0.225120000000     0.396220000000     0.068459666667     0          
C78C     C      0.251500000000     0.429780000000     0.071669666667     0          
H42C     H      0.249100000000     0.447700000000     0.064896666667     0          
C79C     C      0.281400000000     0.436480000000     0.084969666667     0          
C80C     C      0.284910000000     0.409630000000     0.095059666667     0          
C81C     C      0.314810000000     0.416330000000     0.108359666667     0          
H43C     H      0.317200000000     0.398400000000     0.115096666667     0          
C82C     C      0.341190000000     0.449890000000     0.111569666667     0          
C83C     C      0.337680000000     0.476740000000     0.101479666667     0          
H44C     H      0.355300000000     0.499200000000     0.103596666667     0          
C84C     C      0.307780000000     0.470040000000     0.088179666667     0          
H45C     H      0.305400000000     0.488000000000     0.081396666667     0          
O32C     O      0.163400000000     0.939600000000     0.991699666667     0          
C85C     C      0.113900000000     0.355100000000     0.981299666667     0          
H46C     H      0.128800000000     0.374300000000     0.969696666667     0          
H47C     H      0.094100000000     0.338900000000     0.970896666667     0          
C86C     C      0.138800000000     0.325400000000     0.332299666667     0          
C87C     C      0.098300000000     0.280000000000     0.977299666667     0          
H48C     H      0.081000000000     0.283000000000     0.967996666667     0          
H49C     H      0.089600000000     0.255700000000     0.979996666667     0          
C88C     C      0.127120000000     0.171650000000     0.913479666667     0          
H50C     H      0.148600000000     0.178300000000     0.920696666667     0          
C89C     C      0.108340000000     0.139840000000     0.901119666667     0          
H51C     H      0.117300000000     0.125200000000     0.899996666667     0          
C90C     C      0.076210000000     0.129870000000     0.890359666667     0          
C91C     C      0.062870000000     0.151710000000     0.891959666667     0          
H52C     H      0.041400000000     0.145000000000     0.884796666667     0          
C92C     C      0.081660000000     0.183510000000     0.904319666667     0          
C93C     C      0.113780000000     0.193480000000     0.915079666667     0          
C94C     C      0.132570000000     0.225290000000     0.927449666667     0          
H53C     H      0.154100000000     0.232000000000     0.934596666667     0          
C95C     C      0.119230000000     0.247120000000     0.929049666667     0          
C96C     C      0.087100000000     0.237150000000     0.918289666667     0          
H54C     H      0.078200000000     0.251800000000     0.919396666667     0          
C97C     C      0.068320000000     0.205350000000     0.905929666667     0          
H55C     H      0.046800000000     0.198700000000     0.898696666667     0          
C98C     C      0.179100000000     0.811200000000     0.988099666667     0          
H56C     H      0.159300000000     0.804900000000     0.976696666667     0          
H57C     H      0.195800000000     0.807600000000     0.978596666667     0          
C99C     C      0.092640000000     0.865720000000     0.074609666667     0          
H58C     H      0.077500000000     0.843700000000     0.068496666667     0          
C100C    C      0.127710000000     0.878790000000     0.072179666667     0          
C101C    C      0.150410000000     0.911640000000     0.081359666667     0          
H59C     H      0.173900000000     0.920400000000     0.079696666667     0          
C102C    C      0.138050000000     0.931420000000     0.092969666667     0          
H60C     H      0.153200000000     0.953400000000     0.099096666667     0          
C103C    C      0.102990000000     0.918350000000     0.095399666667     0          
C104C    C      0.080290000000     0.885510000000     0.086219666667     0          
C105C    C      0.045220000000     0.872440000000     0.088659666667     0          
H61C     H      0.030000000000     0.850500000000     0.082496666667     0          
C106C    C      0.032870000000     0.892220000000     0.100259666667     0          
H62C     H      0.009400000000     0.883500000000     0.101896666667     0          
C107C    C      0.055570000000     0.925070000000     0.109439666667     0          
C108C    C      0.090630000000     0.938140000000     0.107009666667     0          
H63C     H      0.105800000000     0.960100000000     0.113096666667     0          
C109C    C      0.156690000000     0.812250000000     0.032789666667     0          
C110C    C      0.170030000000     0.845600000000     0.023459666667     0          
C111C    C      0.160540000000     0.867320000000     0.035789666667     0          
C112C    C      0.137720000000     0.855690000000     0.057439666667     0          
C113C    C      0.124390000000     0.822340000000     0.066769666667     0          
H64C     H      0.109100000000     0.814600000000     0.081296666667     0          
C114C    C      0.133880000000     0.800620000000     0.054439666667     0          
C115C    C      0.133900000000     0.337500000000     0.994099666667     0          
O33C     O      0.401200000000     0.485900000000     0.117539666667     0          
C116C    C      0.200880000000     0.876730000000     0.977169666667     0          
C117C    C      0.233990000000     0.889730000000     0.967379666667     0          
C118C    C      0.245300000000     0.912380000000     0.945609666667     0          
C119C    C      0.223500000000     0.922030000000     0.933629666667     0          
H65C     H      0.231100000000     0.937200000000     0.919096666667     0          
C120C    C      0.190400000000     0.909000000000     0.943429666667     0          
C121C    C      0.179080000000     0.886380000000     0.965189666667     0          
C122C    C      0.103900000000     0.366500000000     0.005699666667     0          
H66C     H      0.082900000000     0.348100000000     0.013396666667     0          
H67C     H      0.100800000000     0.385800000000     0.001796666667     0          
C123C    C      0.135420000000     0.446250000000     0.062319666667     0          
H68C     H      0.157100000000     0.461700000000     0.055696666667     0          
C124C    C      0.121770000000     0.411380000000     0.057969666667     0          
C125C    C      0.089430000000     0.388270000000     0.067859666667     0          
H69C     H      0.080300000000     0.364900000000     0.064896666667     0          
C126C    C      0.070730000000     0.400030000000     0.082079666667     0          
H70C     H      0.049100000000     0.384600000000     0.088696666667     0          
C127C    C      0.084370000000     0.434900000000     0.086429666667     0          
C128C    C      0.116720000000     0.458010000000     0.076549666667     0          
C129C    C      0.130360000000     0.492880000000     0.080889666667     0          
H71C     H      0.152000000000     0.508300000000     0.074296666667     0          
C130C    C      0.111660000000     0.504650000000     0.095119666667     0          
H72C     H      0.120800000000     0.528000000000     0.097996666667     0          
C131C    C      0.079320000000     0.481530000000     0.104999666667     0          
C132C    C      0.065670000000     0.446660000000     0.100649666667     0          
H73C     H      0.044000000000     0.431200000000     0.107296666667     0          
C133C    C      0.233200000000     0.869000000000     0.012699666667     0          
H74C     H      0.236700000000     0.887800000000     0.024396666667     0          
H75C     H      0.238700000000     0.853800000000     0.022596666667     0          
C134C    C      0.174400000000     0.336800000000     0.339399666667     0          
H76C     H      0.176300000000     0.317100000000     0.344696666667     0          
H77C     H      0.181100000000     0.352200000000     0.354796666667     0          
C135C    C      0.028000000000     0.616900000000     0.121699666667     0          
C136C    C      0.147590000000     0.354690000000     0.309599666667     0          
C137C    C      0.128060000000     0.368560000000     0.300239666667     0          
C138C    C      0.139660000000     0.391420000000     0.278609666667     0          
C139C    C      0.170780000000     0.400410000000     0.266349666667     0          
H78C     H      0.178500000000     0.415700000000     0.251896666667     0          
C140C    C      0.190320000000     0.386500000000     0.275709666667     0          
C141C    C      0.178720000000     0.363690000000     0.297339666667     0          
O34C     O      0.103200000000     0.048300000000     0.862709666667     0          
O36C     O      0.400100000000     0.483900000000     0.217489666667     0          
O37C     O      0.037250000000     0.470760000000     0.189109666667     0          
O38C     O      0.503500000000     0.417300000000     0.132679666667     0          
O40C     O      0.062820000000     0.521270000000     0.214149666667     0          
O41C     O      0.371620000000     0.432540000000     0.193119666667     0          
O42C     O      0.065060000000     0.097500000000     0.472869666667     0          
O43C     O      0.437000000000     0.549700000000     0.138109666667     0          
O44C     O      0.045710000000     0.020470000000     0.911439666667     0          
O45C     O      0.516620000000     0.476720000000     0.169349666667     0          
O46C     O      0.961030000000     0.978220000000     0.912889666667     0          
O47C     O      0.042690000000     0.477870000000     0.136759666667     0          
O48C     O      0.502700000000     0.415400000000     0.200179666667     0          
O49C     O      0.013900000000     0.076400000000     0.448299666667     0          
O50C     O      0.497750000000     0.501420000000     0.136009666667     0          
C142C    C      0.057500000000     0.495000000000     0.117799666667     0          
O51C     O      0.437300000000     0.542300000000     0.205499666667     0          
O52C     O      0.438800000000     0.456000000000     0.207959666667     0          
O53C     O      0.062400000000     0.525300000000     0.115689666667     0          
C143C    C      0.130700000000     0.439320000000     0.264119666667     0          
H79C     H      0.151500000000     0.454500000000     0.272196666667     0          
C144C    C      0.118300000000     0.404290000000     0.265509666667     0          
C145C    C      0.087250000000     0.381630000000     0.253399666667     0          
H80C     H      0.079000000000     0.358200000000     0.254296666667     0          
C146C    C      0.068600000000     0.394000000000     0.239879666667     0          
H81C     H      0.047800000000     0.378800000000     0.231796666667     0          
C147C    C      0.081000000000     0.429030000000     0.238489666667     0          
C148C    C      0.112050000000     0.451690000000     0.250609666667     0          
C149C    C      0.124450000000     0.486730000000     0.249219666667     0          
H82C     H      0.145200000000     0.501900000000     0.257296666667     0          
C150C    C      0.105800000000     0.499100000000     0.235709666667     0          
H83C     H      0.114100000000     0.522500000000     0.234796666667     0          
C151C    C      0.074750000000     0.476440000000     0.223589666667     0          
C152C    C      0.062350000000     0.441400000000     0.224979666667     0          
H84C     H      0.041600000000     0.426200000000     0.216896666667     0          
C153C    C      0.046400000000     0.099000000000     0.453599666667     0          
C154C    C      0.058400000000     0.097100000000     0.876299666667     0          
O54C     O      0.431450000000     0.488810000000     0.169469666667     0          
C155C    C      0.124500000000     0.291800000000     0.318399666667     0          
H85C     H      0.141800000000     0.289700000000     0.308196666667     0          
H86C     H      0.105500000000     0.287200000000     0.306596666667     0          
C156C    C      0.169700000000     0.794100000000     0.015699666667     0          
H87C     H      0.152300000000     0.770300000000     0.013796666667     0          
H88C     H      0.189700000000     0.795300000000     0.024196666667     0          
C157C    C      0.112500000000     0.268100000000     0.344699666667     0          
H89C     H      0.093000000000     0.245800000000     0.340796666667     0          
H90C     H      0.131000000000     0.265200000000     0.351896666667     0          
C158C    C      0.056500000000     0.491000000000     0.207099666667     0          
C159C    C      0.372800000000     0.457900000000     0.209199666667     0          
C160C    C      0.380900000000     0.410100000000     0.874499666667     0          
C161C    C      0.309410000000     0.468420000000     0.250309666667     0          
H91C     H      0.307500000000     0.485900000000     0.258596666667     0          
C162C    C      0.339380000000     0.475720000000     0.236829666667     0          
H92C     H      0.357600000000     0.498100000000     0.236096666667     0          
C163C    C      0.342180000000     0.449600000000     0.224379666667     0          
C164C    C      0.315020000000     0.416140000000     0.225409666667     0          
H93C     H      0.316900000000     0.398600000000     0.217096666667     0          
C165C    C      0.285050000000     0.408840000000     0.238889666667     0          
C166C    C      0.282240000000     0.434980000000     0.251339666667     0          
C167C    C      0.252280000000     0.427690000000     0.264809666667     0          
H94C     H      0.250400000000     0.445200000000     0.273096666667     0          
C168C    C      0.225110000000     0.394200000000     0.265839666667     0          
C169C    C      0.227910000000     0.368110000000     0.253399666667     0          
H95C     H      0.209700000000     0.345700000000     0.254096666667     0          
C170C    C      0.257880000000     0.375400000000     0.239919666667     0          
H96C     H      0.259800000000     0.357900000000     0.231596666667     0          
C171C    C      0.052500000000     0.951900000000     0.877699666667     0          
O55C     O      0.036100000000     0.937890000000     0.859279666667     0          
C172C    C      0.051300000000     0.470420000000     0.459229666667     0          
O56C     O      0.063470000000     0.983170000000     0.880369666667     0          
O57C     O      0.440400000000     0.936300000000     0.888039666667     0          
C173C    C      0.164030000000     0.969680000000     0.913289666667     0          
H97C     H      0.173800000000     0.993200000000     0.910996666667     0          
C174C    C      0.182760000000     0.956400000000     0.925379666667     0          
H98C     H      0.205100000000     0.971100000000     0.931096666667     0          
C175C    C      0.168150000000     0.921300000000     0.928869666667     0          
C176C    C      0.134810000000     0.899420000000     0.920269666667     0          
H99C     H      0.125000000000     0.875900000000     0.922596666667     0          
C177C    C      0.116080000000     0.912680000000     0.908169666667     0          
C178C    C      0.130690000000     0.947810000000     0.904689666667     0          
C179C    C      0.111970000000     0.961070000000     0.892589666667     0          
H100C    H      0.121700000000     0.984600000000     0.890296666667     0          
C180C    C      0.078620000000     0.939200000000     0.883989666667     0          
C181C    C      0.064010000000     0.904060000000     0.887479666667     0          
H101C    H      0.041700000000     0.889400000000     0.881696666667     0          
C182C    C      0.082740000000     0.890800000000     0.899569666667     0          
H102C    H      0.073000000000     0.867300000000     0.901896666667     0          
C183C    C      0.424200000000     0.951500000000     0.883299666667     0          
O60C     O      0.427350000000     0.969600000000     0.864219666667     0          
Zr6A     Zr     0.943610000000     0.488420000000     0.200483666667     0          
Zr8A     Zr     0.032620000000     0.548510000000     0.129233666667     0          
Zr9E     Zr     0.489760000000     0.943650000000     0.871136666667     0          
O4A      O      0.443900000000     0.402200000000     0.217333666667     0          
O24E     O      0.033160000000     0.094110000000     0.805136666667     0          
O29E     O      0.062620000000     0.074620000000     0.784196666667     0          
O30A     O      0.394630000000     0.390890000000     0.195633666667     0          
O35E     O      0.558000000000     0.959060000000     0.550286666667     0          
O37A     O      0.566490000000     0.529240000000     0.144223666667     0          
O39E     O      0.604190000000     0.994420000000     0.525116666667     0          
O40A     O      0.541550000000     0.478730000000     0.119183666667     0          
O42A     O      0.967560000000     0.902500000000     0.860463666667     0          
O47A     O      0.564820000000     0.522130000000     0.196573666667     0          
O49A     O      0.937500000000     0.923600000000     0.885033666667     0          
O53A     O      0.537100000000     0.474700000000     0.217643666667     0          
O57A     O      0.504100000000     0.063700000000     0.445293666667     0          
O58E     O      0.498000000000     0.560270000000     0.116596666667     0          
O59E     O      0.544430000000     0.573310000000     0.143466666667     0          
O60A     O      0.457750000000     0.030400000000     0.469113666667     0          
Zr5      Zr     0.025550000000     0.979300000000     0.465053333333     0          
P1       P      0.852980000000     0.622640000000     0.335693333333     0          
P2       P      0.715950000000     0.624200000000     0.998863333333     0          
O1       O      0.032440000000     0.030800000000     0.461433333333     0          
O2       O      0.008250000000     0.047970000000     0.499943333333     0          
P3       P      0.245020000000     0.099750000000     0.333663333333     0          
O3       O      0.985600000000     0.542700000000     0.204913333333     0          
O5       O      0.976180000000     0.977750000000     0.464963333333     0          
O6       O      0.029110000000     0.545370000000     0.244903333333     0          
O7       O      0.996320000000     0.499060000000     0.126483333333     0          
O8       O      0.952800000000     0.999130000000     0.500143333333     0          
O9       O      0.025400000000     0.546200000000     0.084713333333     0          
O10      O      0.946910000000     0.462150000000     0.162813333333     0          
O11      O      0.937870000000     0.566820000000     0.191983333333     0          
O12      O      0.829170000000     0.621020000000     0.358503333333     0          
O13      O      0.270840000000     0.102010000000     0.310823333333     0          
O14      O      0.738060000000     0.643600000000     0.021723333333     0          
O15      O      0.742860000000     0.624080000000     0.976593333333     0          
O16      O      0.020340000000     0.563660000000     0.164203333333     0          
O17      O      0.699210000000     0.642090000000     0.988663333333     0          
O18      O      0.272010000000     0.125490000000     0.356063333333     0          
C1       C      0.346000000000     0.150900000000     0.332833333333     0          
O19      O      0.940120000000     0.904870000000     0.474593333333     0          
O20      O      0.847390000000     0.644870000000     0.313923333333     0          
C2       C      0.371900000000     0.118200000000     0.347433333333     0          
H1       H      0.373700000000     0.098000000000     0.344033333333     0          
H2       H      0.393400000000     0.135800000000     0.355033333333     0          
O21      O      0.950700000000     0.054800000000     0.467373333333     0          
O22      O      0.695670000000     0.585660000000     0.004033333333     0          
C3       C      0.857750000000     0.716220000000     0.393783333333     0          
C4       C      0.835220000000     0.704220000000     0.371943333333     0          
C5       C      0.824550000000     0.671850000000     0.361393333333     0          
C6       C      0.836380000000     0.651460000000     0.372693333333     0          
C7       C      0.858910000000     0.663460000000     0.394533333333     0          
C8       C      0.869590000000     0.695830000000     0.405083333333     0          
H3       H      0.884700000000     0.703900000000     0.419733333333     0          
O23      O      0.838400000000     0.586300000000     0.325473333333     0          
C9       C      0.630480000000     0.585770000000     0.887433333333     0          
H4       H      0.620100000000     0.596300000000     0.878433333333     0          
C10      C      0.614580000000     0.550270000000     0.888223333333     0          
C11      C      0.630180000000     0.534560000000     0.901623333333     0          
H5       H      0.619500000000     0.510800000000     0.902133333333     0          
C12      C      0.661660000000     0.554340000000     0.914233333333     0          
H6       H      0.672100000000     0.543800000000     0.923233333333     0          
C13      C      0.677550000000     0.589830000000     0.913443333333     0          
C14      C      0.661960000000     0.605550000000     0.900043333333     0          
C15      C      0.677850000000     0.641040000000     0.899253333333     0          
H7       H      0.667500000000     0.651600000000     0.890333333333     0          
C16      C      0.709330000000     0.660820000000     0.911863333333     0          
H8       H      0.720000000000     0.684600000000     0.911333333333     0          
C17      C      0.724910000000     0.645100000000     0.925263333333     0          
C18      C      0.709030000000     0.609610000000     0.926063333333     0          
H9       H      0.719500000000     0.599100000000     0.935033333333     0          
O25      O      0.989310000000     0.925120000000     0.451053333333     0          
C19      C      0.843800000000     0.644800000000     0.017833333333     0          
H10      H      0.843700000000     0.624300000000     0.011733333333     0          
H11      H      0.865400000000     0.659700000000     0.026733333333     0          
O26      O      0.947530000000     0.489820000000     0.245253333333     0          
C20      C      0.757560000000     0.623460000000     0.308603333333     0          
C21      C      0.747080000000     0.603470000000     0.285263333333     0          
C22      C      0.770130000000     0.597500000000     0.270943333333     0          
H12      H      0.763100000000     0.584100000000     0.255333333333     0          
C23      C      0.803690000000     0.611540000000     0.279973333333     0          
C24      C      0.814180000000     0.631540000000     0.303313333333     0          
C25      C      0.791120000000     0.637500000000     0.317633333333     0          
O27      O      0.226000000000     0.120900000000     0.323633333333     0          
O28      O      0.888800000000     0.641700000000     0.344983333333     0          
C26      C      0.914000000000     0.542400000000     0.206733333333     0          
C27      C      0.809300000000     0.701700000000     0.329933333333     0          
H13      H      0.829000000000     0.710400000000     0.317933333333     0          
H14      H      0.791200000000     0.703500000000     0.320833333333     0          
C28      C      0.870020000000     0.589800000000     0.419953333333     0          
H15      H      0.857400000000     0.566200000000     0.422033333333     0          
C29      C      0.854710000000     0.607380000000     0.409253333333     0          
H16      H      0.831800000000     0.595500000000     0.404233333333     0          
C30      C      0.873670000000     0.642700000000     0.406113333333     0          
C31      C      0.907930000000     0.660440000000     0.413683333333     0          
H17      H      0.920600000000     0.684100000000     0.411533333333     0          
C32      C      0.923240000000     0.642860000000     0.424383333333     0          
C33      C      0.904290000000     0.607550000000     0.427523333333     0          
C34      C      0.919600000000     0.589970000000     0.438223333333     0          
H18      H      0.906900000000     0.566300000000     0.440333333333     0          
C35      C      0.953870000000     0.607710000000     0.445793333333     0          
C36      C      0.972820000000     0.643030000000     0.442653333333     0          
H19      H      0.995700000000     0.654900000000     0.447733333333     0          
C37      C      0.957510000000     0.660610000000     0.431953333333     0          
H20      H      0.970100000000     0.684200000000     0.429833333333     0          
C38      C      0.360140000000     0.034010000000     0.426563333333     0          
H21      H      0.349800000000     0.012800000000     0.435233333333     0          
C39      C      0.340050000000     0.045400000000     0.414043333333     0          
H22      H      0.316300000000     0.031800000000     0.414333333333     0          
C40      C      0.355400000000     0.077040000000     0.401163333333     0          
C41      C      0.390850000000     0.097300000000     0.400803333333     0          
H23      H      0.401100000000     0.118500000000     0.392133333333     0          
C42      C      0.410940000000     0.085910000000     0.413323333333     0          
C43      C      0.395590000000     0.054260000000     0.426203333333     0          
C44      C      0.415680000000     0.042870000000     0.438723333333     0          
H24      H      0.405400000000     0.021700000000     0.447333333333     0          
C45      C      0.451130000000     0.063130000000     0.438363333333     0          
C46      C      0.466490000000     0.094780000000     0.425473333333     0          
H25      H      0.490200000000     0.108300000000     0.425233333333     0          
C47      C      0.446400000000     0.106170000000     0.412963333333     0          
H26      H      0.456600000000     0.127300000000     0.404333333333     0          
C48      C      0.758930000000     0.666530000000     0.939993333333     0          
C49      C      0.767570000000     0.655990000000     0.963753333333     0          
C50      C      0.796060000000     0.679040000000     0.978613333333     0          
C51      C      0.815890000000     0.712610000000     0.969723333333     0          
C52      C      0.807240000000     0.723150000000     0.945963333333     0          
C53      C      0.778750000000     0.700100000000     0.931093333333     0          
H27      H      0.772900000000     0.707100000000     0.915233333333     0          
C54      C      0.406720000000     0.282460000000     0.253883333333     0          
H28      H      0.430400000000     0.292800000000     0.252433333333     0          
C55      C      0.388070000000     0.250150000000     0.265473333333     0          
H29      H      0.399300000000     0.238900000000     0.271733333333     0          
C56      C      0.352700000000     0.234670000000     0.267683333333     0          
C57      C      0.335980000000     0.251500000000     0.258313333333     0          
H30      H      0.312300000000     0.241100000000     0.259833333333     0          
C58      C      0.354630000000     0.283810000000     0.246723333333     0          
C59      C      0.390000000000     0.299290000000     0.244503333333     0          
C60      C      0.408640000000     0.331590000000     0.232923333333     0          
H31      H      0.432300000000     0.341900000000     0.231433333333     0          
C61      C      0.391930000000     0.348430000000     0.223543333333     0          
C62      C      0.356550000000     0.332950000000     0.225763333333     0          
H32      H      0.345400000000     0.344200000000     0.219533333333     0          
C63      C      0.337900000000     0.300640000000     0.237353333333     0          
H33      H      0.314300000000     0.290300000000     0.238833333333     0          
O31      O      0.943970000000     0.492910000000     0.085243333333     0          
C64      C      0.096400000000     0.056300000000     0.211333333333     0          
C65      C      0.892490000000     0.856010000000     0.901543333333     0          
H34      H      0.885000000000     0.871800000000     0.901133333333     0          
C66      C      0.924370000000     0.864630000000     0.890973333333     0          
C67      C      0.935550000000     0.840980000000     0.891513333333     0          
H35      H      0.956800000000     0.846700000000     0.884433333333     0          
C68      C      0.914830000000     0.808700000000     0.902603333333     0          
H36      H      0.922300000000     0.792900000000     0.902933333333     0          
C69      C      0.882950000000     0.800080000000     0.913163333333     0          
C70      C      0.871770000000     0.823730000000     0.912633333333     0          
C71      C      0.839890000000     0.815110000000     0.923193333333     0          
H37      H      0.832400000000     0.830900000000     0.922833333333     0          
C72      C      0.819170000000     0.782830000000     0.934293333333     0          
H38      H      0.797900000000     0.777100000000     0.941333333333     0          
C73      C      0.830340000000     0.759170000000     0.934823333333     0          
C74      C      0.862230000000     0.767800000000     0.924263333333     0          
H39      H      0.869700000000     0.752000000000     0.924633333333     0          
C75      C      0.882460000000     0.623930000000     0.241483333333     0          
H40      H      0.902800000000     0.641900000000     0.234733333333     0          
C76      C      0.859260000000     0.630630000000     0.254783333333     0          
H41      H      0.864100000000     0.653100000000     0.256933333333     0          
C77      C      0.828900000000     0.603780000000     0.264873333333     0          
C78      C      0.821720000000     0.570220000000     0.261663333333     0          
H42      H      0.801400000000     0.552300000000     0.268433333333     0          
C79      C      0.844920000000     0.563520000000     0.248363333333     0          
C80      C      0.875280000000     0.590370000000     0.238273333333     0          
C81      C      0.898480000000     0.583670000000     0.224973333333     0          
H43      H      0.918800000000     0.601600000000     0.218233333333     0          
C82      C      0.891300000000     0.550110000000     0.221763333333     0          
C83      C      0.860940000000     0.523260000000     0.231853333333     0          
H44      H      0.856100000000     0.500800000000     0.229733333333     0          
C84      C      0.837740000000     0.529960000000     0.245153333333     0          
H45      H      0.817400000000     0.512000000000     0.251933333333     0          
O32      O      0.223800000000     0.060400000000     0.341633333333     0          
C85      C      0.758800000000     0.644900000000     0.352033333333     0          
H46      H      0.754500000000     0.625700000000     0.363633333333     0          
H47      H      0.755200000000     0.661100000000     0.362433333333     0          
C86      C      0.813400000000     0.674600000000     0.001033333333     0          
C87      C      0.818300000000     0.720000000000     0.356033333333     0          
H48      H      0.798000000000     0.717000000000     0.365333333333     0          
H49      H      0.833900000000     0.744300000000     0.353333333333     0          
C88      C      0.955470000000     0.828350000000     0.419853333333     0          
H50      H      0.970300000000     0.821700000000     0.412633333333     0          
C89      C      0.968500000000     0.860160000000     0.432213333333     0          
H51      H      0.992100000000     0.874800000000     0.433333333333     0          
C90      C      0.946340000000     0.870130000000     0.442973333333     0          
C91      C      0.911160000000     0.848290000000     0.441373333333     0          
H52      H      0.896400000000     0.855000000000     0.448533333333     0          
C92      C      0.898150000000     0.816490000000     0.429013333333     0          
C93      C      0.920300000000     0.806520000000     0.418253333333     0          
C94      C      0.907280000000     0.774710000000     0.405883333333     0          
H53      H      0.922100000000     0.768000000000     0.398733333333     0          
C95      C      0.872110000000     0.752880000000     0.404283333333     0          
C96      C      0.849950000000     0.762850000000     0.415043333333     0          
H54      H      0.826400000000     0.748200000000     0.413933333333     0          
C97      C      0.862970000000     0.794650000000     0.427403333333     0          
H55      H      0.848100000000     0.801300000000     0.434633333333     0          
C98      C      0.367900000000     0.188800000000     0.345233333333     0          
H56      H      0.354400000000     0.195100000000     0.356633333333     0          
H57      H      0.388200000000     0.192400000000     0.354733333333     0          
C99      C      0.226920000000     0.134280000000     0.258723333333     0          
H58      H      0.233800000000     0.156300000000     0.264833333333     0          
C100     C      0.248920000000     0.121210000000     0.261153333333     0          
C101     C      0.238770000000     0.088360000000     0.251973333333     0          
H59      H      0.253500000000     0.079600000000     0.253633333333     0          
C102     C      0.206630000000     0.068580000000     0.240363333333     0          
H60      H      0.199800000000     0.046600000000     0.234233333333     0          
C103     C      0.184640000000     0.081650000000     0.237933333333     0          
C104     C      0.194780000000     0.114490000000     0.247113333333     0          
C105     C      0.172780000000     0.127560000000     0.244673333333     0          
H61      H      0.179500000000     0.149500000000     0.250833333333     0          
C106     C      0.140650000000     0.107780000000     0.233073333333     0          
H62      H      0.125900000000     0.116500000000     0.231433333333     0          
C107     C      0.130500000000     0.074930000000     0.223893333333     0          
C108     C      0.152490000000     0.061860000000     0.226323333333     0          
H63      H      0.145700000000     0.039900000000     0.220233333333     0          
C109     C      0.344440000000     0.187750000000     0.300543333333     0          
C110     C      0.324430000000     0.154400000000     0.309873333333     0          
C111     C      0.293220000000     0.132680000000     0.297543333333     0          
C112     C      0.282030000000     0.144310000000     0.275893333333     0          
C113     C      0.302050000000     0.177660000000     0.266563333333     0          
H64      H      0.294500000000     0.185400000000     0.252033333333     0          
C114     C      0.333260000000     0.199380000000     0.278893333333     0          
C115     C      0.796400000000     0.662500000000     0.339233333333     0          
O33      O      0.915300000000     0.514100000000     0.215793333333     0          
C116     C      0.324150000000     0.123270000000     0.356163333333     0          
C117     C      0.344260000000     0.110270000000     0.365953333333     0          
C118     C      0.332920000000     0.087620000000     0.387723333333     0          
C119     C      0.301470000000     0.077970000000     0.399703333333     0          
H65      H      0.293900000000     0.062800000000     0.414233333333     0          
C120     C      0.281400000000     0.091000000000     0.389903333333     0          
C121     C      0.292700000000     0.113620000000     0.368143333333     0          
C122     C      0.737400000000     0.633500000000     0.327633333333     0          
H66      H      0.734800000000     0.651900000000     0.319933333333     0          
H67      H      0.715000000000     0.614200000000     0.331533333333     0          
C123     C      0.689170000000     0.553750000000     0.271013333333     0          
H68      H      0.695400000000     0.538300000000     0.277633333333     0          
C124     C      0.710390000000     0.588620000000     0.275363333333     0          
C125     C      0.701160000000     0.611730000000     0.265473333333     0          
H69      H      0.715400000000     0.635100000000     0.268433333333     0          
C126     C      0.670700000000     0.599970000000     0.251253333333     0          
H70      H      0.664500000000     0.615400000000     0.244633333333     0          
C127     C      0.649470000000     0.565100000000     0.246903333333     0          
C128     C      0.658710000000     0.541990000000     0.256783333333     0          
C129     C      0.637480000000     0.507120000000     0.252443333333     0          
H71      H      0.643700000000     0.491700000000     0.259033333333     0          
C130     C      0.607010000000     0.495350000000     0.238213333333     0          
H72      H      0.592800000000     0.472000000000     0.235333333333     0          
C131     C      0.597790000000     0.518470000000     0.228333333333     0          
C132     C      0.619010000000     0.553340000000     0.232683333333     0          
H73      H      0.612800000000     0.568800000000     0.226033333333     0          
C133     C      0.364200000000     0.131000000000     0.320633333333     0          
H74      H      0.348900000000     0.112200000000     0.308933333333     0          
H75      H      0.384900000000     0.146200000000     0.310733333333     0          
C134     C      0.837600000000     0.663200000000     0.993933333333     0          
H76      H      0.859200000000     0.682900000000     0.988633333333     0          
H77      H      0.828900000000     0.647800000000     0.978533333333     0          
C135     C      0.411100000000     0.383100000000     0.211633333333     0          
C136     C      0.792900000000     0.645310000000     0.023733333333     0          
C137     C      0.759500000000     0.631440000000     0.033093333333     0          
C138     C      0.748240000000     0.608580000000     0.054723333333     0          
C139     C      0.770370000000     0.599590000000     0.066983333333     0          
H78      H      0.762800000000     0.584300000000     0.081433333333     0          
C140     C      0.803820000000     0.613500000000     0.057623333333     0          
C141     C      0.815030000000     0.636310000000     0.035993333333     0          
O34      O      0.054900000000     0.951700000000     0.470623333333     0          
O36      O      0.916200000000     0.516100000000     0.115843333333     0          
O38      O      0.086200000000     0.582700000000     0.200653333333     0          
O41      O      0.939080000000     0.567460000000     0.140213333333     0          
O43      O      0.887300000000     0.450300000000     0.195223333333     0          
O44      O      0.025240000000     0.979530000000     0.421893333333     0          
O45      O      0.039900000000     0.523280000000     0.163983333333     0          
O46      O      0.982810000000     0.021780000000     0.420443333333     0          
O48      O      0.087300000000     0.584600000000     0.133153333333     0          
O50      O      0.996330000000     0.498580000000     0.197323333333     0          
C142     C      0.562500000000     0.505000000000     0.215533333333     0          
O51      O      0.895000000000     0.457700000000     0.127833333333     0          
O52      O      0.982800000000     0.544000000000     0.125373333333     0          
C143     C      0.691380000000     0.560680000000     0.069213333333     0          
H79      H      0.697000000000     0.545500000000     0.061133333333     0          
C144     C      0.714010000000     0.595710000000     0.067823333333     0          
C145     C      0.705620000000     0.618370000000     0.079933333333     0          
H80      H      0.720800000000     0.641800000000     0.079033333333     0          
C146     C      0.674600000000     0.606000000000     0.093453333333     0          
H81      H      0.669000000000     0.621200000000     0.101533333333     0          
C147     C      0.651970000000     0.570970000000     0.094843333333     0          
C148     C      0.660360000000     0.548310000000     0.082723333333     0          
C149     C      0.637720000000     0.513270000000     0.084113333333     0          
H82      H      0.643300000000     0.498100000000     0.076033333333     0          
C150     C      0.606700000000     0.500900000000     0.097623333333     0          
H83      H      0.591600000000     0.477500000000     0.098533333333     0          
C151     C      0.598310000000     0.523560000000     0.109743333333     0          
C152     C      0.620950000000     0.558600000000     0.108353333333     0          
H84      H      0.615400000000     0.573800000000     0.116433333333     0          
C153     C      0.947400000000     0.901000000000     0.879733333333     0          
C154     C      0.961300000000     0.902900000000     0.457033333333     0          
O54      O      0.942640000000     0.511190000000     0.163863333333     0          
C155     C      0.832700000000     0.708200000000     0.014933333333     0          
H85      H      0.852100000000     0.710300000000     0.025133333333     0          
H86      H      0.818300000000     0.712800000000     0.026733333333     0          
C156     C      0.375600000000     0.205900000000     0.317633333333     0          
H87      H      0.382000000000     0.229700000000     0.319533333333     0          
H88      H      0.394400000000     0.204700000000     0.309133333333     0          
C157     C      0.844400000000     0.731900000000     0.988633333333     0          
H89      H      0.847200000000     0.754200000000     0.992533333333     0          
H90      H      0.865800000000     0.734800000000     0.981433333333     0          
C158     C      0.565500000000     0.509000000000     0.126233333333     0          
C159     C      0.914900000000     0.542100000000     0.124133333333     0          
C160     C      0.970800000000     0.589900000000     0.458833333333     0          
C161     C      0.840990000000     0.531580000000     0.083023333333     0          
H91      H      0.821600000000     0.514100000000     0.074733333333     0          
C162     C      0.863660000000     0.524280000000     0.096503333333     0          
H92      H      0.859500000000     0.501900000000     0.097233333333     0          
C163     C      0.892580000000     0.550400000000     0.108953333333     0          
C164     C      0.898880000000     0.583860000000     0.107923333333     0          
H93      H      0.918300000000     0.601400000000     0.116233333333     0          
C165     C      0.876210000000     0.591160000000     0.094443333333     0          
C166     C      0.847260000000     0.565020000000     0.081993333333     0          
C167     C      0.824590000000     0.572310000000     0.068523333333     0          
H94      H      0.805200000000     0.554800000000     0.060233333333     0          
C168     C      0.830910000000     0.605800000000     0.067493333333     0          
C169     C      0.859800000000     0.631890000000     0.079933333333     0          
H95      H      0.864000000000     0.654300000000     0.079233333333     0          
C170     C      0.882480000000     0.624600000000     0.093413333333     0          
H96      H      0.901900000000     0.642100000000     0.101733333333     0          
C171     C      0.100600000000     0.048100000000     0.455633333333     0          
O55      O      0.098210000000     0.062110000000     0.474053333333     0          
C172     C      0.580880000000     0.529580000000     0.874103333333     0          
O56      O      0.080300000000     0.016830000000     0.452963333333     0          
C173     C      0.194350000000     0.030320000000     0.420043333333     0          
H97      H      0.180600000000     0.006800000000     0.422333333333     0          
C174     C      0.226360000000     0.043600000000     0.407953333333     0          
H98      H      0.234000000000     0.028900000000     0.402233333333     0          
C175     C      0.246850000000     0.078700000000     0.404463333333     0          
C176     C      0.235390000000     0.100580000000     0.413063333333     0          
H99      H      0.249100000000     0.124100000000     0.410733333333     0          
C177     C      0.203400000000     0.087320000000     0.425163333333     0          
C178     C      0.182880000000     0.052190000000     0.428643333333     0          
C179     C      0.150900000000     0.038930000000     0.440743333333     0          
H100     H      0.137100000000     0.015400000000     0.443033333333     0          
C180     C      0.139420000000     0.060800000000     0.449343333333     0          
C181     C      0.159950000000     0.095940000000     0.445853333333     0          
H101     H      0.152300000000     0.110600000000     0.451633333333     0          
C182     C      0.191940000000     0.109200000000     0.433763333333     0          
H102     H      0.205700000000     0.132700000000     0.431433333333     0          
C183     C      0.472700000000     0.048500000000     0.450033333333     0          
Zr5C     Zr     0.979300000000     0.025550000000     0.534946333333     0          
P1C      P      0.622640000000     0.852980000000     0.664306333333     0          
P2C      P      0.624200000000     0.715950000000     0.001136333333     0          
O1C      O      0.030800000000     0.032440000000     0.538566333333     0          
O2C      O      0.047970000000     0.008250000000     0.500056333333     0          
P3C      P      0.099750000000     0.245020000000     0.666336333333     0          
O3C      O      0.542700000000     0.985600000000     0.795086333333     0          
O5C      O      0.977750000000     0.976180000000     0.535036333333     0          
O6C      O      0.545370000000     0.029110000000     0.755096333333     0          
O7C      O      0.499060000000     0.996320000000     0.873516333333     0          
O8C      O      0.999130000000     0.952800000000     0.499856333333     0          
O9C      O      0.546200000000     0.025400000000     0.915286333333     0          
O10C     O      0.462150000000     0.946910000000     0.837186333333     0          
O11C     O      0.566820000000     0.937870000000     0.808016333333     0          
O12C     O      0.621020000000     0.829170000000     0.641496333333     0          
O13C     O      0.102010000000     0.270840000000     0.689176333333     0          
O14C     O      0.643600000000     0.738060000000     0.978276333333     0          
O15C     O      0.624080000000     0.742860000000     0.023406333333     0          
O16C     O      0.563660000000     0.020340000000     0.835796333333     0          
O17C     O      0.642090000000     0.699210000000     0.011336333333     0          
O18C     O      0.125490000000     0.272010000000     0.643936333333     0          
C1C      C      0.150900000000     0.346000000000     0.667166333333     0          
O19C     O      0.904870000000     0.940120000000     0.525406333333     0          
O20C     O      0.644870000000     0.847390000000     0.686076333333     0          
C2C      C      0.118200000000     0.371900000000     0.652566333333     0          
H1C      H      0.098000000000     0.373700000000     0.655963333333     0          
H2C      H      0.135800000000     0.393400000000     0.644963333333     0          
O21C     O      0.054800000000     0.950700000000     0.532626333333     0          
O22C     O      0.585660000000     0.695670000000     0.995966333333     0          
C3C      C      0.716220000000     0.857750000000     0.606216333333     0          
C4C      C      0.704220000000     0.835220000000     0.628056333333     0          
C5C      C      0.671850000000     0.824550000000     0.638606333333     0          
C6C      C      0.651460000000     0.836380000000     0.627306333333     0          
C7C      C      0.663460000000     0.858910000000     0.605466333333     0          
C8C      C      0.695830000000     0.869590000000     0.594916333333     0          
H3C      H      0.703900000000     0.884700000000     0.580263333333     0          
O23C     O      0.586300000000     0.838400000000     0.674526333333     0          
C9C      C      0.585770000000     0.630480000000     0.112566333333     0          
H4C      H      0.596300000000     0.620100000000     0.121563333333     0          
C10C     C      0.550270000000     0.614580000000     0.111776333333     0          
C11C     C      0.534560000000     0.630180000000     0.098376333333     0          
H5C      H      0.510800000000     0.619500000000     0.097863333333     0          
C12C     C      0.554340000000     0.661660000000     0.085766333333     0          
H6C      H      0.543800000000     0.672100000000     0.076763333333     0          
C13C     C      0.589830000000     0.677550000000     0.086556333333     0          
C14C     C      0.605550000000     0.661960000000     0.099956333333     0          
C15C     C      0.641040000000     0.677850000000     0.100746333333     0          
H7C      H      0.651600000000     0.667500000000     0.109663333333     0          
C16C     C      0.660820000000     0.709330000000     0.088136333333     0          
H8C      H      0.684600000000     0.720000000000     0.088663333333     0          
C17C     C      0.645100000000     0.724910000000     0.074736333333     0          
C18C     C      0.609610000000     0.709030000000     0.073936333333     0          
H9C      H      0.599100000000     0.719500000000     0.064963333333     0          
O25C     O      0.925120000000     0.989310000000     0.548946333333     0          
C19C     C      0.644800000000     0.843800000000     0.982166333333     0          
H10C     H      0.624300000000     0.843700000000     0.988263333333     0          
H11C     H      0.659700000000     0.865400000000     0.973263333333     0          
O26C     O      0.489820000000     0.947530000000     0.754746333333     0          
C20C     C      0.623460000000     0.757560000000     0.691396333333     0          
C21C     C      0.603470000000     0.747080000000     0.714736333333     0          
C22C     C      0.597500000000     0.770130000000     0.729056333333     0          
H12C     H      0.584100000000     0.763100000000     0.744663333333     0          
C23C     C      0.611540000000     0.803690000000     0.720026333333     0          
C24C     C      0.631540000000     0.814180000000     0.696686333333     0          
C25C     C      0.637500000000     0.791120000000     0.682366333333     0          
O27C     O      0.120900000000     0.226000000000     0.676366333333     0          
O28C     O      0.641700000000     0.888800000000     0.655016333333     0          
C26C     C      0.542400000000     0.914000000000     0.793266333333     0          
C27C     C      0.701700000000     0.809300000000     0.670066333333     0          
H13C     H      0.710400000000     0.829000000000     0.682063333333     0          
H14C     H      0.703500000000     0.791200000000     0.679163333333     0          
C28C     C      0.589800000000     0.870020000000     0.580046333333     0          
H15C     H      0.566200000000     0.857400000000     0.577963333333     0          
C29C     C      0.607380000000     0.854710000000     0.590746333333     0          
H16C     H      0.595500000000     0.831800000000     0.595763333333     0          
C30C     C      0.642700000000     0.873670000000     0.593886333333     0          
C31C     C      0.660440000000     0.907930000000     0.586316333333     0          
H17C     H      0.684100000000     0.920600000000     0.588463333333     0          
C32C     C      0.642860000000     0.923240000000     0.575616333333     0          
C33C     C      0.607550000000     0.904290000000     0.572476333333     0          
C34C     C      0.589970000000     0.919600000000     0.561776333333     0          
H18C     H      0.566300000000     0.906900000000     0.559663333333     0          
C35C     C      0.607710000000     0.953870000000     0.554206333333     0          
C36C     C      0.643030000000     0.972820000000     0.557346333333     0          
H19C     H      0.654900000000     0.995700000000     0.552263333333     0          
C37C     C      0.660610000000     0.957510000000     0.568046333333     0          
H20C     H      0.684200000000     0.970100000000     0.570163333333     0          
C38C     C      0.034010000000     0.360140000000     0.573436333333     0          
H21C     H      0.012800000000     0.349800000000     0.564763333333     0          
C39C     C      0.045400000000     0.340050000000     0.585956333333     0          
H22C     H      0.031800000000     0.316300000000     0.585663333333     0          
C40C     C      0.077040000000     0.355400000000     0.598836333333     0          
C41C     C      0.097300000000     0.390850000000     0.599196333333     0          
H23C     H      0.118500000000     0.401100000000     0.607863333333     0          
C42C     C      0.085910000000     0.410940000000     0.586676333333     0          
C43C     C      0.054260000000     0.395590000000     0.573796333333     0          
C44C     C      0.042870000000     0.415680000000     0.561276333333     0          
H24C     H      0.021700000000     0.405400000000     0.552663333333     0          
C45C     C      0.063130000000     0.451130000000     0.561636333333     0          
C46C     C      0.094780000000     0.466490000000     0.574526333333     0          
H25C     H      0.108300000000     0.490200000000     0.574763333333     0          
C47C     C      0.106170000000     0.446400000000     0.587036333333     0          
H26C     H      0.127300000000     0.456600000000     0.595663333333     0          
C48C     C      0.666530000000     0.758930000000     0.060006333333     0          
C49C     C      0.655990000000     0.767570000000     0.036246333333     0          
C50C     C      0.679040000000     0.796060000000     0.021386333333     0          
C51C     C      0.712610000000     0.815890000000     0.030276333333     0          
C52C     C      0.723150000000     0.807240000000     0.054036333333     0          
C53C     C      0.700100000000     0.778750000000     0.068906333333     0          
H27C     H      0.707100000000     0.772900000000     0.084763333333     0          
C54C     C      0.282460000000     0.406720000000     0.746116333333     0          
H28C     H      0.292800000000     0.430400000000     0.747563333333     0          
C55C     C      0.250150000000     0.388070000000     0.734526333333     0          
H29C     H      0.238900000000     0.399300000000     0.728263333333     0          
C56C     C      0.234670000000     0.352700000000     0.732316333333     0          
C57C     C      0.251500000000     0.335980000000     0.741686333333     0          
H30C     H      0.241100000000     0.312300000000     0.740163333333     0          
C58C     C      0.283810000000     0.354630000000     0.753276333333     0          
C59C     C      0.299290000000     0.390000000000     0.755496333333     0          
C60C     C      0.331590000000     0.408640000000     0.767076333333     0          
H31C     H      0.341900000000     0.432300000000     0.768563333333     0          
C61C     C      0.348430000000     0.391930000000     0.776456333333     0          
C62C     C      0.332950000000     0.356550000000     0.774236333333     0          
H32C     H      0.344200000000     0.345400000000     0.780463333333     0          
C63C     C      0.300640000000     0.337900000000     0.762646333333     0          
H33C     H      0.290300000000     0.314300000000     0.761163333333     0          
O31C     O      0.492910000000     0.943970000000     0.914756333333     0          
C64C     C      0.056300000000     0.096400000000     0.788666333333     0          
C65C     C      0.856010000000     0.892490000000     0.098456333333     0          
H34C     H      0.871800000000     0.885000000000     0.098863333333     0          
C66C     C      0.864630000000     0.924370000000     0.109026333333     0          
C67C     C      0.840980000000     0.935550000000     0.108486333333     0          
H35C     H      0.846700000000     0.956800000000     0.115563333333     0          
C68C     C      0.808700000000     0.914830000000     0.097396333333     0          
H36C     H      0.792900000000     0.922300000000     0.097063333333     0          
C69C     C      0.800080000000     0.882950000000     0.086836333333     0          
C70C     C      0.823730000000     0.871770000000     0.087366333333     0          
C71C     C      0.815110000000     0.839890000000     0.076806333333     0          
H37C     H      0.830900000000     0.832400000000     0.077163333333     0          
C72C     C      0.782830000000     0.819170000000     0.065706333333     0          
H38C     H      0.777100000000     0.797900000000     0.058663333333     0          
C73C     C      0.759170000000     0.830340000000     0.065176333333     0          
C74C     C      0.767800000000     0.862230000000     0.075736333333     0          
H39C     H      0.752000000000     0.869700000000     0.075363333333     0          
C75C     C      0.623930000000     0.882460000000     0.758516333333     0          
H40C     H      0.641900000000     0.902800000000     0.765263333333     0          
C76C     C      0.630630000000     0.859260000000     0.745216333333     0          
H41C     H      0.653100000000     0.864100000000     0.743063333333     0          
C77C     C      0.603780000000     0.828900000000     0.735126333333     0          
C78C     C      0.570220000000     0.821720000000     0.738336333333     0          
H42C     H      0.552300000000     0.801400000000     0.731563333333     0          
C79C     C      0.563520000000     0.844920000000     0.751636333333     0          
C80C     C      0.590370000000     0.875280000000     0.761726333333     0          
C81C     C      0.583670000000     0.898480000000     0.775026333333     0          
H43C     H      0.601600000000     0.918800000000     0.781763333333     0          
C82C     C      0.550110000000     0.891300000000     0.778236333333     0          
C83C     C      0.523260000000     0.860940000000     0.768146333333     0          
H44C     H      0.500800000000     0.856100000000     0.770263333333     0          
C84C     C      0.529960000000     0.837740000000     0.754846333333     0          
H45C     H      0.512000000000     0.817400000000     0.748063333333     0          
O32C     O      0.060400000000     0.223800000000     0.658366333333     0          
C85C     C      0.644900000000     0.758800000000     0.647966333333     0          
H46C     H      0.625700000000     0.754500000000     0.636363333333     0          
H47C     H      0.661100000000     0.755200000000     0.637563333333     0          
C86C     C      0.674600000000     0.813400000000     0.998966333333     0          
C87C     C      0.720000000000     0.818300000000     0.643966333333     0          
H48C     H      0.717000000000     0.798000000000     0.634663333333     0          
H49C     H      0.744300000000     0.833900000000     0.646663333333     0          
C88C     C      0.828350000000     0.955470000000     0.580146333333     0          
H50C     H      0.821700000000     0.970300000000     0.587363333333     0          
C89C     C      0.860160000000     0.968500000000     0.567786333333     0          
H51C     H      0.874800000000     0.992100000000     0.566663333333     0          
C90C     C      0.870130000000     0.946340000000     0.557026333333     0          
C91C     C      0.848290000000     0.911160000000     0.558626333333     0          
H52C     H      0.855000000000     0.896400000000     0.551463333333     0          
C92C     C      0.816490000000     0.898150000000     0.570986333333     0          
C93C     C      0.806520000000     0.920300000000     0.581746333333     0          
C94C     C      0.774710000000     0.907280000000     0.594116333333     0          
H53C     H      0.768000000000     0.922100000000     0.601263333333     0          
C95C     C      0.752880000000     0.872110000000     0.595716333333     0          
C96C     C      0.762850000000     0.849950000000     0.584956333333     0          
H54C     H      0.748200000000     0.826400000000     0.586063333333     0          
C97C     C      0.794650000000     0.862970000000     0.572596333333     0          
H55C     H      0.801300000000     0.848100000000     0.565363333333     0          
C98C     C      0.188800000000     0.367900000000     0.654766333333     0          
H56C     H      0.195100000000     0.354400000000     0.643363333333     0          
H57C     H      0.192400000000     0.388200000000     0.645263333333     0          
C99C     C      0.134280000000     0.226920000000     0.741276333333     0          
H58C     H      0.156300000000     0.233800000000     0.735163333333     0          
C100C    C      0.121210000000     0.248920000000     0.738846333333     0          
C101C    C      0.088360000000     0.238770000000     0.748026333333     0          
H59C     H      0.079600000000     0.253500000000     0.746363333333     0          
C102C    C      0.068580000000     0.206630000000     0.759636333333     0          
H60C     H      0.046600000000     0.199800000000     0.765763333333     0          
C103C    C      0.081650000000     0.184640000000     0.762066333333     0          
C104C    C      0.114490000000     0.194780000000     0.752886333333     0          
C105C    C      0.127560000000     0.172780000000     0.755326333333     0          
H61C     H      0.149500000000     0.179500000000     0.749163333333     0          
C106C    C      0.107780000000     0.140650000000     0.766926333333     0          
H62C     H      0.116500000000     0.125900000000     0.768563333333     0          
C107C    C      0.074930000000     0.130500000000     0.776106333333     0          
C108C    C      0.061860000000     0.152490000000     0.773676333333     0          
H63C     H      0.039900000000     0.145700000000     0.779763333333     0          
C109C    C      0.187750000000     0.344440000000     0.699456333333     0          
C110C    C      0.154400000000     0.324430000000     0.690126333333     0          
C111C    C      0.132680000000     0.293220000000     0.702456333333     0          
C112C    C      0.144310000000     0.282030000000     0.724106333333     0          
C113C    C      0.177660000000     0.302050000000     0.733436333333     0          
H64C     H      0.185400000000     0.294500000000     0.747963333333     0          
C114C    C      0.199380000000     0.333260000000     0.721106333333     0          
C115C    C      0.662500000000     0.796400000000     0.660766333333     0          
O33C     O      0.514100000000     0.915300000000     0.784206333333     0          
C116C    C      0.123270000000     0.324150000000     0.643836333333     0          
C117C    C      0.110270000000     0.344260000000     0.634046333333     0          
C118C    C      0.087620000000     0.332920000000     0.612276333333     0          
C119C    C      0.077970000000     0.301470000000     0.600296333333     0          
H65C     H      0.062800000000     0.293900000000     0.585763333333     0          
C120C    C      0.091000000000     0.281400000000     0.610096333333     0          
C121C    C      0.113620000000     0.292700000000     0.631856333333     0          
C122C    C      0.633500000000     0.737400000000     0.672366333333     0          
H66C     H      0.651900000000     0.734800000000     0.680063333333     0          
H67C     H      0.614200000000     0.715000000000     0.668463333333     0          
C123C    C      0.553750000000     0.689170000000     0.728986333333     0          
H68C     H      0.538300000000     0.695400000000     0.722363333333     0          
C124C    C      0.588620000000     0.710390000000     0.724636333333     0          
C125C    C      0.611730000000     0.701160000000     0.734526333333     0          
H69C     H      0.635100000000     0.715400000000     0.731563333333     0          
C126C    C      0.599970000000     0.670700000000     0.748746333333     0          
H70C     H      0.615400000000     0.664500000000     0.755363333333     0          
C127C    C      0.565100000000     0.649470000000     0.753096333333     0          
C128C    C      0.541990000000     0.658710000000     0.743216333333     0          
C129C    C      0.507120000000     0.637480000000     0.747556333333     0          
H71C     H      0.491700000000     0.643700000000     0.740963333333     0          
C130C    C      0.495350000000     0.607010000000     0.761786333333     0          
H72C     H      0.472000000000     0.592800000000     0.764663333333     0          
C131C    C      0.518470000000     0.597790000000     0.771666333333     0          
C132C    C      0.553340000000     0.619010000000     0.767316333333     0          
H73C     H      0.568800000000     0.612800000000     0.773963333333     0          
C133C    C      0.131000000000     0.364200000000     0.679366333333     0          
H74C     H      0.112200000000     0.348900000000     0.691063333333     0          
H75C     H      0.146200000000     0.384900000000     0.689263333333     0          
C134C    C      0.663200000000     0.837600000000     0.006066333333     0          
H76C     H      0.682900000000     0.859200000000     0.011363333333     0          
H77C     H      0.647800000000     0.828900000000     0.021463333333     0          
C135C    C      0.383100000000     0.411100000000     0.788366333333     0          
C136C    C      0.645310000000     0.792900000000     0.976266333333     0          
C137C    C      0.631440000000     0.759500000000     0.966906333333     0          
C138C    C      0.608580000000     0.748240000000     0.945276333333     0          
C139C    C      0.599590000000     0.770370000000     0.933016333333     0          
H78C     H      0.584300000000     0.762800000000     0.918563333333     0          
C140C    C      0.613500000000     0.803820000000     0.942376333333     0          
C141C    C      0.636310000000     0.815030000000     0.964006333333     0          
O34C     O      0.951700000000     0.054900000000     0.529376333333     0          
O36C     O      0.516100000000     0.916200000000     0.884156333333     0          
O38C     O      0.582700000000     0.086200000000     0.799346333333     0          
O41C     O      0.567460000000     0.939080000000     0.859786333333     0          
O43C     O      0.450300000000     0.887300000000     0.804776333333     0          
O44C     O      0.979530000000     0.025240000000     0.578106333333     0          
O45C     O      0.523280000000     0.039900000000     0.836016333333     0          
O46C     O      0.021780000000     0.982810000000     0.579556333333     0          
O48C     O      0.584600000000     0.087300000000     0.866846333333     0          
O50C     O      0.498580000000     0.996330000000     0.802676333333     0          
C142C    C      0.505000000000     0.562500000000     0.784466333333     0          
O51C     O      0.457700000000     0.895000000000     0.872166333333     0          
O52C     O      0.544000000000     0.982800000000     0.874626333333     0          
C143C    C      0.560680000000     0.691380000000     0.930786333333     0          
H79C     H      0.545500000000     0.697000000000     0.938863333333     0          
C144C    C      0.595710000000     0.714010000000     0.932176333333     0          
C145C    C      0.618370000000     0.705620000000     0.920066333333     0          
H80C     H      0.641800000000     0.720800000000     0.920963333333     0          
C146C    C      0.606000000000     0.674600000000     0.906546333333     0          
H81C     H      0.621200000000     0.669000000000     0.898463333333     0          
C147C    C      0.570970000000     0.651970000000     0.905156333333     0          
C148C    C      0.548310000000     0.660360000000     0.917276333333     0          
C149C    C      0.513270000000     0.637720000000     0.915886333333     0          
H82C     H      0.498100000000     0.643300000000     0.923963333333     0          
C150C    C      0.500900000000     0.606700000000     0.902376333333     0          
H83C     H      0.477500000000     0.591600000000     0.901463333333     0          
C151C    C      0.523560000000     0.598310000000     0.890256333333     0          
C152C    C      0.558600000000     0.620950000000     0.891646333333     0          
H84C     H      0.573800000000     0.615400000000     0.883563333333     0          
C153C    C      0.901000000000     0.947400000000     0.120266333333     0          
C154C    C      0.902900000000     0.961300000000     0.542966333333     0          
O54C     O      0.511190000000     0.942640000000     0.836136333333     0          
C155C    C      0.708200000000     0.832700000000     0.985066333333     0          
H85C     H      0.710300000000     0.852100000000     0.974863333333     0          
H86C     H      0.712800000000     0.818300000000     0.973263333333     0          
C156C    C      0.205900000000     0.375600000000     0.682366333333     0          
H87C     H      0.229700000000     0.382000000000     0.680463333333     0          
H88C     H      0.204700000000     0.394400000000     0.690863333333     0          
C157C    C      0.731900000000     0.844400000000     0.011366333333     0          
H89C     H      0.754200000000     0.847200000000     0.007463333333     0          
H90C     H      0.734800000000     0.865800000000     0.018563333333     0          
C158C    C      0.509000000000     0.565500000000     0.873766333333     0          
C159C    C      0.542100000000     0.914900000000     0.875866333333     0          
C160C    C      0.589900000000     0.970800000000     0.541166333333     0          
C161C    C      0.531580000000     0.840990000000     0.916976333333     0          
H91C     H      0.514100000000     0.821600000000     0.925263333333     0          
C162C    C      0.524280000000     0.863660000000     0.903496333333     0          
H92C     H      0.501900000000     0.859500000000     0.902763333333     0          
C163C    C      0.550400000000     0.892580000000     0.891046333333     0          
C164C    C      0.583860000000     0.898880000000     0.892076333333     0          
H93C     H      0.601400000000     0.918300000000     0.883763333333     0          
C165C    C      0.591160000000     0.876210000000     0.905556333333     0          
C166C    C      0.565020000000     0.847260000000     0.918006333333     0          
C167C    C      0.572310000000     0.824590000000     0.931476333333     0          
H94C     H      0.554800000000     0.805200000000     0.939763333333     0          
C168C    C      0.605800000000     0.830910000000     0.932506333333     0          
C169C    C      0.631890000000     0.859800000000     0.920066333333     0          
H95C     H      0.654300000000     0.864000000000     0.920763333333     0          
C170C    C      0.624600000000     0.882480000000     0.906586333333     0          
H96C     H      0.642100000000     0.901900000000     0.898263333333     0          
C171C    C      0.048100000000     0.100600000000     0.544366333333     0          
O55C     O      0.062110000000     0.098210000000     0.525946333333     0          
C172C    C      0.529580000000     0.580880000000     0.125896333333     0          
O56C     O      0.016830000000     0.080300000000     0.547036333333     0          
C173C    C      0.030320000000     0.194350000000     0.579956333333     0          
H97C     H      0.006800000000     0.180600000000     0.577663333333     0          
C174C    C      0.043600000000     0.226360000000     0.592046333333     0          
H98C     H      0.028900000000     0.234000000000     0.597763333333     0          
C175C    C      0.078700000000     0.246850000000     0.595536333333     0          
C176C    C      0.100580000000     0.235390000000     0.586936333333     0          
H99C     H      0.124100000000     0.249100000000     0.589263333333     0          
C177C    C      0.087320000000     0.203400000000     0.574836333333     0          
C178C    C      0.052190000000     0.182880000000     0.571356333333     0          
C179C    C      0.038930000000     0.150900000000     0.559256333333     0          
H100C    H      0.015400000000     0.137100000000     0.556963333333     0          
C180C    C      0.060800000000     0.139420000000     0.550656333333     0          
C181C    C      0.095940000000     0.159950000000     0.554146333333     0          
H101C    H      0.110600000000     0.152300000000     0.548363333333     0          
C182C    C      0.109200000000     0.191940000000     0.566236333333     0          
H102C    H      0.132700000000     0.205700000000     0.568563333333     0          
C183C    C      0.048500000000     0.472700000000     0.549966333333     0          


