data_JUSGOV

_audit_creation_method RASPA-1.0
_audit_creation_date 2020-11-2
_audit_author_name 'Rocio Bueno-Perez'

_cell_length_a    26.7882
_cell_length_b    26.7882
_cell_length_c    26.7882
_cell_angle_alpha 90
_cell_angle_beta  90
_cell_angle_gamma 90
_cell_volume      19223.4

_symmetry_cell_setting          triclinic
_symmetry_space_group_name_Hall 'P 1'
_symmetry_space_group_name_H-M  'P 1'
_symmetry_Int_Tables_number     1

_symmetry_equiv_pos_as_xyz 'x,y,z'

loop_
_atom_site_label
_atom_site_type_symbol
_atom_site_fract_x
_atom_site_fract_y
_atom_site_fract_z
_atom_site_charge
C1       C      0.482700000000     0.645100000000     0.205000000000     0          
C2       C      0.481100000000     0.681600000000     0.242700000000     0          
N3       N      0.454000000000     0.668200000000     0.286500000000     0          
H4       H      0.469600000000     0.609300000000     0.213100000000     0          
C5       C      0.482700000000     0.854900000000     0.295000000000     0          
C6       C      0.481100000000     0.818400000000     0.257300000000     0          
H7       H      0.469600000000     0.890700000000     0.286900000000     0          
C8       C      0.705000000000     0.517300000000     0.854900000000     0          
C9       C      0.742700000000     0.518900000000     0.818400000000     0          
H10      H      0.713100000000     0.530400000000     0.890700000000     0          
C11      C      0.205000000000     0.982700000000     0.145100000000     0          
C12      C      0.242700000000     0.981100000000     0.181600000000     0          
H13      H      0.213100000000     0.969600000000     0.109300000000     0          
C14      C      0.205000000000     0.482700000000     0.645100000000     0          
C15      C      0.242700000000     0.481100000000     0.681600000000     0          
N16      N      0.286500000000     0.454000000000     0.668200000000     0          
H17      H      0.213100000000     0.469600000000     0.609300000000     0          
C18      C      0.295000000000     0.982700000000     0.354900000000     0          
C19      C      0.257300000000     0.981100000000     0.318400000000     0          
N20      N      0.213500000000     0.954000000000     0.331800000000     0          
H21      H      0.286900000000     0.969600000000     0.390700000000     0          
C22      C      0.295000000000     0.482700000000     0.854900000000     0          
C23      C      0.257300000000     0.481100000000     0.818400000000     0          
H24      H      0.286900000000     0.469600000000     0.890700000000     0          
C25      C      0.795000000000     0.017300000000     0.145100000000     0          
C26      C      0.757300000000     0.018900000000     0.181600000000     0          
H27      H      0.786900000000     0.030400000000     0.109300000000     0          
C28      C      0.795000000000     0.517300000000     0.645100000000     0          
C29      C      0.757300000000     0.518900000000     0.681600000000     0          
H30      H      0.786900000000     0.530400000000     0.609300000000     0          
C31      C      0.854900000000     0.205000000000     0.017300000000     0          
C32      C      0.818400000000     0.242700000000     0.018900000000     0          
H33      H      0.890700000000     0.213100000000     0.030400000000     0          
C34      C      0.354900000000     0.205000000000     0.517300000000     0          
C35      C      0.318400000000     0.242700000000     0.518900000000     0          
H36      H      0.390700000000     0.213100000000     0.530400000000     0          
C37      C      0.354900000000     0.705000000000     0.017300000000     0          
C38      C      0.318400000000     0.742700000000     0.018900000000     0          
H39      H      0.390700000000     0.713100000000     0.030400000000     0          
C40      C      0.145100000000     0.705000000000     0.482700000000     0          
C41      C      0.181600000000     0.742700000000     0.481100000000     0          
H42      H      0.109300000000     0.713100000000     0.469600000000     0          
C43      C      0.645100000000     0.705000000000     0.982700000000     0          
C44      C      0.681600000000     0.742700000000     0.981100000000     0          
H45      H      0.609300000000     0.713100000000     0.969600000000     0          
C46      C      0.854900000000     0.795000000000     0.982700000000     0          
C47      C      0.818400000000     0.757300000000     0.981100000000     0          
H48      H      0.890700000000     0.786900000000     0.969600000000     0          
C49      C      0.354900000000     0.795000000000     0.482700000000     0          
C50      C      0.318400000000     0.757300000000     0.481100000000     0          
N51      N      0.331800000000     0.713500000000     0.454000000000     0          
H52      H      0.390700000000     0.786900000000     0.469600000000     0          
C53      C      0.145100000000     0.795000000000     0.017300000000     0          
C54      C      0.181600000000     0.757300000000     0.018900000000     0          
H55      H      0.109300000000     0.786900000000     0.030400000000     0          
C56      C      0.145100000000     0.295000000000     0.517300000000     0          
C57      C      0.181600000000     0.257300000000     0.518900000000     0          
H58      H      0.109300000000     0.286900000000     0.530400000000     0          
C59      C      0.645100000000     0.295000000000     0.017300000000     0          
C60      C      0.681600000000     0.257300000000     0.018900000000     0          
N61      N      0.668200000000     0.213500000000     0.046000000000     0          
H62      H      0.609300000000     0.286900000000     0.030400000000     0          
C63      C      0.354900000000     0.017300000000     0.295000000000     0          
C64      C      0.318400000000     0.018900000000     0.257300000000     0          
H65      H      0.390700000000     0.030400000000     0.286900000000     0          
C66      C      0.354900000000     0.517300000000     0.795000000000     0          
C67      C      0.318400000000     0.518900000000     0.757300000000     0          
H68      H      0.390700000000     0.530400000000     0.786900000000     0          
C69      C      0.645100000000     0.482700000000     0.795000000000     0          
C70      C      0.681600000000     0.481100000000     0.757300000000     0          
H71      H      0.609300000000     0.469600000000     0.786900000000     0          
C72      C      0.854900000000     0.982700000000     0.205000000000     0          
C73      C      0.818400000000     0.981100000000     0.242700000000     0          
N74      N      0.831800000000     0.954000000000     0.286500000000     0          
H75      H      0.890700000000     0.969600000000     0.213100000000     0          
C76      C      0.854900000000     0.482700000000     0.705000000000     0          
C77      C      0.818400000000     0.481100000000     0.742700000000     0          
N78      N      0.831800000000     0.454000000000     0.786500000000     0          
H79      H      0.890700000000     0.469600000000     0.713100000000     0          
C80      C      0.145100000000     0.017300000000     0.205000000000     0          
C81      C      0.181600000000     0.018900000000     0.242700000000     0          
H82      H      0.109300000000     0.030400000000     0.213100000000     0          
C83      C      0.145100000000     0.517300000000     0.705000000000     0          
C84      C      0.181600000000     0.518900000000     0.742700000000     0          
H85      H      0.109300000000     0.530400000000     0.713100000000     0          
C86      C      0.517300000000     0.705000000000     0.145100000000     0          
C87      C      0.518900000000     0.742700000000     0.181600000000     0          
H88      H      0.530400000000     0.713100000000     0.109300000000     0          
C89      C      0.517300000000     0.795000000000     0.354900000000     0          
C90      C      0.518900000000     0.757300000000     0.318400000000     0          
H91      H      0.530400000000     0.786900000000     0.390700000000     0          
C92      C      0.205000000000     0.854900000000     0.982700000000     0          
C93      C      0.242700000000     0.818400000000     0.981100000000     0          
H94      H      0.213100000000     0.890700000000     0.969600000000     0          
C95      C      0.205000000000     0.354900000000     0.482700000000     0          
C96      C      0.242700000000     0.318400000000     0.481100000000     0          
N97      N      0.286500000000     0.331800000000     0.454000000000     0          
H98      H      0.213100000000     0.390700000000     0.469600000000     0          
C99      C      0.705000000000     0.354900000000     0.982700000000     0          
C100     C      0.742700000000     0.318400000000     0.981100000000     0          
H101     H      0.713100000000     0.390700000000     0.969600000000     0          
C102     C      0.205000000000     0.645100000000     0.517300000000     0          
C103     C      0.242700000000     0.681600000000     0.518900000000     0          
H104     H      0.213100000000     0.609300000000     0.530400000000     0          
C105     C      0.705000000000     0.645100000000     0.017300000000     0          
C106     C      0.742700000000     0.681600000000     0.018900000000     0          
H107     H      0.713100000000     0.609300000000     0.030400000000     0          
C108     C      0.795000000000     0.854900000000     0.017300000000     0          
C109     C      0.757300000000     0.818400000000     0.018900000000     0          
N110     N      0.713500000000     0.831800000000     0.046000000000     0          
H111     H      0.786900000000     0.890700000000     0.030400000000     0          
C112     C      0.295000000000     0.854900000000     0.517300000000     0          
C113     C      0.257300000000     0.818400000000     0.518900000000     0          
H114     H      0.286900000000     0.890700000000     0.530400000000     0          
C115     C      0.795000000000     0.145100000000     0.982700000000     0          
C116     C      0.757300000000     0.181600000000     0.981100000000     0          
H117     H      0.786900000000     0.109300000000     0.969600000000     0          
C118     C      0.295000000000     0.145100000000     0.482700000000     0          
C119     C      0.257300000000     0.181600000000     0.481100000000     0          
H120     H      0.286900000000     0.109300000000     0.469600000000     0          
C121     C      0.295000000000     0.645100000000     0.982700000000     0          
C122     C      0.257300000000     0.681600000000     0.981100000000     0          
N123     N      0.213500000000     0.668200000000     0.954000000000     0          
H124     H      0.286900000000     0.609300000000     0.969600000000     0          
C125     C      0.982700000000     0.145100000000     0.795000000000     0          
C126     C      0.981100000000     0.181600000000     0.757300000000     0          
H127     H      0.969600000000     0.109300000000     0.786900000000     0          
C128     C      0.982700000000     0.645100000000     0.295000000000     0          
C129     C      0.981100000000     0.681600000000     0.257300000000     0          
H130     H      0.969600000000     0.609300000000     0.286900000000     0          
C131     C      0.482700000000     0.145100000000     0.295000000000     0          
C132     C      0.481100000000     0.181600000000     0.257300000000     0          
H133     H      0.469600000000     0.109300000000     0.286900000000     0          
C134     C      0.482700000000     0.645100000000     0.795000000000     0          
C135     C      0.481100000000     0.681600000000     0.757300000000     0          
N136     N      0.454000000000     0.668200000000     0.713500000000     0          
H137     H      0.469600000000     0.609300000000     0.786900000000     0          
C138     C      0.017300000000     0.854900000000     0.795000000000     0          
C139     C      0.018900000000     0.818400000000     0.757300000000     0          
H140     H      0.030400000000     0.890700000000     0.786900000000     0          
C141     C      0.017300000000     0.354900000000     0.295000000000     0          
C142     C      0.018900000000     0.318400000000     0.257300000000     0          
H143     H      0.030400000000     0.390700000000     0.286900000000     0          
C144     C      0.517300000000     0.354900000000     0.795000000000     0          
C145     C      0.518900000000     0.318400000000     0.757300000000     0          
H146     H      0.530400000000     0.390700000000     0.786900000000     0          
C147     C      0.017300000000     0.145100000000     0.205000000000     0          
C148     C      0.018900000000     0.181600000000     0.242700000000     0          
H149     H      0.030400000000     0.109300000000     0.213100000000     0          
C150     C      0.017300000000     0.645100000000     0.705000000000     0          
C151     C      0.018900000000     0.681600000000     0.742700000000     0          
H152     H      0.030400000000     0.609300000000     0.713100000000     0          
C153     C      0.517300000000     0.145100000000     0.705000000000     0          
C154     C      0.518900000000     0.181600000000     0.742700000000     0          
N155     N      0.546000000000     0.168200000000     0.786500000000     0          
H156     H      0.530400000000     0.109300000000     0.713100000000     0          
C157     C      0.982700000000     0.854900000000     0.205000000000     0          
C158     C      0.981100000000     0.818400000000     0.242700000000     0          
H159     H      0.969600000000     0.890700000000     0.213100000000     0          
C160     C      0.982700000000     0.354900000000     0.705000000000     0          
C161     C      0.981100000000     0.318400000000     0.742700000000     0          
N162     N      0.954000000000     0.331800000000     0.786500000000     0          
H163     H      0.969600000000     0.390700000000     0.713100000000     0          
C164     C      0.482700000000     0.854900000000     0.705000000000     0          
C165     C      0.481100000000     0.818400000000     0.742700000000     0          
H166     H      0.469600000000     0.890700000000     0.713100000000     0          
C167     C      0.482700000000     0.354900000000     0.205000000000     0          
C168     C      0.481100000000     0.318400000000     0.242700000000     0          
H169     H      0.469600000000     0.390700000000     0.213100000000     0          
C170     C      0.295000000000     0.982700000000     0.645100000000     0          
C171     C      0.257300000000     0.981100000000     0.681600000000     0          
H172     H      0.286900000000     0.969600000000     0.609300000000     0          
C173     C      0.295000000000     0.482700000000     0.145100000000     0          
C174     C      0.257300000000     0.481100000000     0.181600000000     0          
N175     N      0.213500000000     0.454000000000     0.168200000000     0          
H176     H      0.286900000000     0.469600000000     0.109300000000     0          
C177     C      0.795000000000     0.017300000000     0.854900000000     0          
C178     C      0.757300000000     0.018900000000     0.818400000000     0          
H179     H      0.786900000000     0.030400000000     0.890700000000     0          
C180     C      0.795000000000     0.517300000000     0.354900000000     0          
C181     C      0.757300000000     0.518900000000     0.318400000000     0          
H182     H      0.786900000000     0.530400000000     0.390700000000     0          
C183     C      0.705000000000     0.017300000000     0.645100000000     0          
C184     C      0.742700000000     0.018900000000     0.681600000000     0          
H185     H      0.713100000000     0.030400000000     0.609300000000     0          
C186     C      0.705000000000     0.517300000000     0.145100000000     0          
C187     C      0.742700000000     0.518900000000     0.181600000000     0          
H188     H      0.713100000000     0.530400000000     0.109300000000     0          
C189     C      0.205000000000     0.982700000000     0.854900000000     0          
C190     C      0.242700000000     0.981100000000     0.818400000000     0          
N191     N      0.286500000000     0.954000000000     0.831800000000     0          
H192     H      0.213100000000     0.969600000000     0.890700000000     0          
C193     C      0.205000000000     0.482700000000     0.354900000000     0          
C194     C      0.242700000000     0.481100000000     0.318400000000     0          
H195     H      0.213100000000     0.469600000000     0.390700000000     0          
C196     C      0.705000000000     0.982700000000     0.354900000000     0          
C197     C      0.742700000000     0.981100000000     0.318400000000     0          
H198     H      0.713100000000     0.969600000000     0.390700000000     0          
C199     C      0.645100000000     0.795000000000     0.482700000000     0          
C200     C      0.681600000000     0.757300000000     0.481100000000     0          
H201     H      0.609300000000     0.786900000000     0.469600000000     0          
C202     C      0.854900000000     0.295000000000     0.517300000000     0          
C203     C      0.818400000000     0.257300000000     0.518900000000     0          
H204     H      0.890700000000     0.286900000000     0.530400000000     0          
C205     C      0.354900000000     0.295000000000     0.017300000000     0          
C206     C      0.318400000000     0.257300000000     0.018900000000     0          
H207     H      0.390700000000     0.286900000000     0.030400000000     0          
C208     C      0.145100000000     0.205000000000     0.017300000000     0          
C209     C      0.181600000000     0.242700000000     0.018900000000     0          
N210     N      0.168200000000     0.286500000000     0.046000000000     0          
H211     H      0.109300000000     0.213100000000     0.030400000000     0          
C212     C      0.645100000000     0.205000000000     0.517300000000     0          
C213     C      0.681600000000     0.242700000000     0.518900000000     0          
H214     H      0.609300000000     0.213100000000     0.530400000000     0          
C215     C      0.854900000000     0.705000000000     0.482700000000     0          
C216     C      0.818400000000     0.742700000000     0.481100000000     0          
H217     H      0.890700000000     0.713100000000     0.469600000000     0          
C218     C      0.645100000000     0.982700000000     0.705000000000     0          
C219     C      0.681600000000     0.981100000000     0.742700000000     0          
N220     N      0.668200000000     0.954000000000     0.786500000000     0          
H221     H      0.609300000000     0.969600000000     0.713100000000     0          
C222     C      0.645100000000     0.482700000000     0.205000000000     0          
C223     C      0.681600000000     0.481100000000     0.242700000000     0          
N224     N      0.668200000000     0.454000000000     0.286500000000     0          
H225     H      0.609300000000     0.469600000000     0.213100000000     0          
C226     C      0.354900000000     0.017300000000     0.705000000000     0          
C227     C      0.318400000000     0.018900000000     0.742700000000     0          
H228     H      0.390700000000     0.030400000000     0.713100000000     0          
C229     C      0.354900000000     0.517300000000     0.205000000000     0          
C230     C      0.318400000000     0.518900000000     0.242700000000     0          
H231     H      0.390700000000     0.530400000000     0.213100000000     0          
C232     C      0.145100000000     0.017300000000     0.795000000000     0          
C233     C      0.181600000000     0.018900000000     0.757300000000     0          
H234     H      0.109300000000     0.030400000000     0.786900000000     0          
C235     C      0.145100000000     0.517300000000     0.295000000000     0          
C236     C      0.181600000000     0.518900000000     0.257300000000     0          
H237     H      0.109300000000     0.530400000000     0.286900000000     0          
C238     C      0.645100000000     0.017300000000     0.295000000000     0          
C239     C      0.681600000000     0.018900000000     0.257300000000     0          
H240     H      0.609300000000     0.030400000000     0.286900000000     0          
C241     C      0.854900000000     0.982700000000     0.795000000000     0          
C242     C      0.818400000000     0.981100000000     0.757300000000     0          
H243     H      0.890700000000     0.969600000000     0.786900000000     0          
C244     C      0.854900000000     0.482700000000     0.295000000000     0          
C245     C      0.818400000000     0.481100000000     0.257300000000     0          
H246     H      0.890700000000     0.469600000000     0.286900000000     0          
C247     C      0.982700000000     0.795000000000     0.854900000000     0          
C248     C      0.981100000000     0.757300000000     0.818400000000     0          
N249     N      0.954000000000     0.713500000000     0.831800000000     0          
H250     H      0.969600000000     0.786900000000     0.890700000000     0          
C251     C      0.982700000000     0.295000000000     0.354900000000     0          
C252     C      0.981100000000     0.257300000000     0.318400000000     0          
H253     H      0.969600000000     0.286900000000     0.390700000000     0          
C254     C      0.482700000000     0.295000000000     0.854900000000     0          
C255     C      0.481100000000     0.257300000000     0.818400000000     0          
H256     H      0.469600000000     0.286900000000     0.890700000000     0          
C257     C      0.017300000000     0.795000000000     0.145100000000     0          
C258     C      0.018900000000     0.757300000000     0.181600000000     0          
H259     H      0.030400000000     0.786900000000     0.109300000000     0          
C260     C      0.017300000000     0.295000000000     0.645100000000     0          
C261     C      0.018900000000     0.257300000000     0.681600000000     0          
H262     H      0.030400000000     0.286900000000     0.609300000000     0          
C263     C      0.517300000000     0.795000000000     0.645100000000     0          
C264     C      0.518900000000     0.757300000000     0.681600000000     0          
H265     H      0.530400000000     0.786900000000     0.609300000000     0          
C266     C      0.517300000000     0.295000000000     0.145100000000     0          
C267     C      0.518900000000     0.257300000000     0.181600000000     0          
N268     N      0.546000000000     0.213500000000     0.168200000000     0          
H269     H      0.530400000000     0.286900000000     0.109300000000     0          
C270     C      0.017300000000     0.205000000000     0.854900000000     0          
C271     C      0.018900000000     0.242700000000     0.818400000000     0          
H272     H      0.030400000000     0.213100000000     0.890700000000     0          
C273     C      0.017300000000     0.705000000000     0.354900000000     0          
C274     C      0.018900000000     0.742700000000     0.318400000000     0          
N275     N      0.046000000000     0.786500000000     0.331800000000     0          
H276     H      0.030400000000     0.713100000000     0.390700000000     0          
C277     C      0.517300000000     0.205000000000     0.354900000000     0          
C278     C      0.518900000000     0.242700000000     0.318400000000     0          
H279     H      0.530400000000     0.213100000000     0.390700000000     0          
C280     C      0.517300000000     0.705000000000     0.854900000000     0          
C281     C      0.518900000000     0.742700000000     0.818400000000     0          
H282     H      0.530400000000     0.713100000000     0.890700000000     0          
C283     C      0.982700000000     0.205000000000     0.145100000000     0          
C284     C      0.981100000000     0.242700000000     0.181600000000     0          
N285     N      0.954000000000     0.286500000000     0.168200000000     0          
H286     H      0.969600000000     0.213100000000     0.109300000000     0          
C287     C      0.982700000000     0.705000000000     0.645100000000     0          
C288     C      0.981100000000     0.742700000000     0.681600000000     0          
H289     H      0.969600000000     0.713100000000     0.609300000000     0          
C290     C      0.482700000000     0.205000000000     0.645100000000     0          
C291     C      0.481100000000     0.242700000000     0.681600000000     0          
H292     H      0.469600000000     0.213100000000     0.609300000000     0          
C293     C      0.795000000000     0.645100000000     0.517300000000     0          
C294     C      0.757300000000     0.681600000000     0.518900000000     0          
N295     N      0.713500000000     0.668200000000     0.546000000000     0          
H296     H      0.786900000000     0.609300000000     0.530400000000     0          
C297     C      0.795000000000     0.354900000000     0.482700000000     0          
C298     C      0.757300000000     0.318400000000     0.481100000000     0          
H299     H      0.786900000000     0.390700000000     0.469600000000     0          
C300     C      0.295000000000     0.354900000000     0.982700000000     0          
C301     C      0.257300000000     0.318400000000     0.981100000000     0          
H302     H      0.286900000000     0.390700000000     0.969600000000     0          
C303     C      0.205000000000     0.145100000000     0.982700000000     0          
C304     C      0.242700000000     0.181600000000     0.981100000000     0          
H305     H      0.213100000000     0.109300000000     0.969600000000     0          
C306     C      0.705000000000     0.145100000000     0.482700000000     0          
C307     C      0.742700000000     0.181600000000     0.481100000000     0          
N308     N      0.786500000000     0.168200000000     0.454000000000     0          
H309     H      0.713100000000     0.109300000000     0.469600000000     0          
C310     C      0.705000000000     0.854900000000     0.517300000000     0          
C311     C      0.742700000000     0.818400000000     0.518900000000     0          
H312     H      0.713100000000     0.890700000000     0.530400000000     0          
Zr313    Zr     0.000000000000     0.000000000000     0.092170000000     0          
Zr314    Zr     0.000000000000     0.500000000000     0.592170000000     0          
Zr315    Zr     0.500000000000     0.000000000000     0.592170000000     0          
Zr316    Zr     0.500000000000     0.500000000000     0.092170000000     0          
Zr317    Zr     0.000000000000     0.000000000000     0.907830000000     0          
Zr318    Zr     0.000000000000     0.500000000000     0.407830000000     0          
Zr319    Zr     0.500000000000     0.000000000000     0.407830000000     0          
Zr320    Zr     0.500000000000     0.500000000000     0.907830000000     0          
Zr321    Zr     0.092170000000     0.000000000000     0.000000000000     0          
Zr322    Zr     0.092170000000     0.500000000000     0.500000000000     0          
Zr323    Zr     0.592170000000     0.000000000000     0.500000000000     0          
Zr324    Zr     0.592170000000     0.500000000000     0.000000000000     0          
Zr325    Zr     0.907830000000     0.000000000000     0.000000000000     0          
Zr326    Zr     0.907830000000     0.500000000000     0.500000000000     0          
Zr327    Zr     0.407830000000     0.000000000000     0.500000000000     0          
Zr328    Zr     0.407830000000     0.500000000000     0.000000000000     0          
Zr329    Zr     0.000000000000     0.092170000000     0.000000000000     0          
Zr330    Zr     0.000000000000     0.592170000000     0.500000000000     0          
Zr331    Zr     0.500000000000     0.092170000000     0.500000000000     0          
Zr332    Zr     0.500000000000     0.592170000000     0.000000000000     0          
Zr333    Zr     0.000000000000     0.907830000000     0.000000000000     0          
Zr334    Zr     0.000000000000     0.407830000000     0.500000000000     0          
Zr335    Zr     0.500000000000     0.907830000000     0.500000000000     0          
Zr336    Zr     0.500000000000     0.407830000000     0.000000000000     0          
O337     O      0.000000000000     0.927900000000     0.133030000000     0          
O338     O      0.000000000000     0.427900000000     0.633030000000     0          
O339     O      0.500000000000     0.927900000000     0.633030000000     0          
O340     O      0.500000000000     0.427900000000     0.133030000000     0          
O341     O      0.000000000000     0.072100000000     0.133030000000     0          
O342     O      0.000000000000     0.572100000000     0.633030000000     0          
O343     O      0.500000000000     0.072100000000     0.633030000000     0          
O344     O      0.500000000000     0.572100000000     0.133030000000     0          
O345     O      0.000000000000     0.927900000000     0.866970000000     0          
O346     O      0.000000000000     0.427900000000     0.366970000000     0          
O347     O      0.500000000000     0.927900000000     0.366970000000     0          
O348     O      0.500000000000     0.427900000000     0.866970000000     0          
O349     O      0.000000000000     0.072100000000     0.866970000000     0          
O350     O      0.000000000000     0.572100000000     0.366970000000     0          
O351     O      0.500000000000     0.072100000000     0.366970000000     0          
O352     O      0.500000000000     0.572100000000     0.866970000000     0          
O353     O      0.133030000000     0.000000000000     0.927900000000     0          
O354     O      0.133030000000     0.500000000000     0.427900000000     0          
O355     O      0.633030000000     0.000000000000     0.427900000000     0          
O356     O      0.633030000000     0.500000000000     0.927900000000     0          
O357     O      0.133030000000     0.000000000000     0.072100000000     0          
O358     O      0.133030000000     0.500000000000     0.572100000000     0          
O359     O      0.633030000000     0.000000000000     0.572100000000     0          
O360     O      0.633030000000     0.500000000000     0.072100000000     0          
O361     O      0.866970000000     0.000000000000     0.927900000000     0          
O362     O      0.866970000000     0.500000000000     0.427900000000     0          
O363     O      0.366970000000     0.000000000000     0.427900000000     0          
O364     O      0.366970000000     0.500000000000     0.927900000000     0          
O365     O      0.866970000000     0.000000000000     0.072100000000     0          
O366     O      0.866970000000     0.500000000000     0.572100000000     0          
O367     O      0.366970000000     0.000000000000     0.572100000000     0          
O368     O      0.366970000000     0.500000000000     0.072100000000     0          
O369     O      0.927900000000     0.133030000000     0.000000000000     0          
O370     O      0.927900000000     0.633030000000     0.500000000000     0          
O371     O      0.427900000000     0.133030000000     0.500000000000     0          
O372     O      0.427900000000     0.633030000000     0.000000000000     0          
O373     O      0.072100000000     0.133030000000     0.000000000000     0          
O374     O      0.072100000000     0.633030000000     0.500000000000     0          
O375     O      0.572100000000     0.133030000000     0.500000000000     0          
O376     O      0.572100000000     0.633030000000     0.000000000000     0          
O377     O      0.927900000000     0.866970000000     0.000000000000     0          
O378     O      0.927900000000     0.366970000000     0.500000000000     0          
O379     O      0.427900000000     0.866970000000     0.500000000000     0          
O380     O      0.427900000000     0.366970000000     0.000000000000     0          
O381     O      0.072100000000     0.866970000000     0.000000000000     0          
O382     O      0.072100000000     0.366970000000     0.500000000000     0          
O383     O      0.572100000000     0.866970000000     0.500000000000     0          
O384     O      0.572100000000     0.366970000000     0.000000000000     0          
O385     O      0.927900000000     0.000000000000     0.866970000000     0          
O386     O      0.927900000000     0.500000000000     0.366970000000     0          
O387     O      0.427900000000     0.000000000000     0.366970000000     0          
O388     O      0.427900000000     0.500000000000     0.866970000000     0          
O389     O      0.072100000000     0.000000000000     0.866970000000     0          
O390     O      0.072100000000     0.500000000000     0.366970000000     0          
O391     O      0.572100000000     0.000000000000     0.366970000000     0          
O392     O      0.572100000000     0.500000000000     0.866970000000     0          
O393     O      0.927900000000     0.000000000000     0.133030000000     0          
O394     O      0.927900000000     0.500000000000     0.633030000000     0          
O395     O      0.427900000000     0.000000000000     0.633030000000     0          
O396     O      0.427900000000     0.500000000000     0.133030000000     0          
O397     O      0.072100000000     0.000000000000     0.133030000000     0          
O398     O      0.072100000000     0.500000000000     0.633030000000     0          
O399     O      0.572100000000     0.000000000000     0.633030000000     0          
O400     O      0.572100000000     0.500000000000     0.133030000000     0          
O401     O      0.000000000000     0.133030000000     0.072100000000     0          
O402     O      0.000000000000     0.633030000000     0.572100000000     0          
O403     O      0.500000000000     0.133030000000     0.572100000000     0          
O404     O      0.500000000000     0.633030000000     0.072100000000     0          
O405     O      0.000000000000     0.133030000000     0.927900000000     0          
O406     O      0.000000000000     0.633030000000     0.427900000000     0          
O407     O      0.500000000000     0.133030000000     0.427900000000     0          
O408     O      0.500000000000     0.633030000000     0.927900000000     0          
O409     O      0.000000000000     0.866970000000     0.072100000000     0          
O410     O      0.000000000000     0.366970000000     0.572100000000     0          
O411     O      0.500000000000     0.866970000000     0.572100000000     0          
O412     O      0.500000000000     0.366970000000     0.072100000000     0          
O413     O      0.000000000000     0.866970000000     0.927900000000     0          
O414     O      0.000000000000     0.366970000000     0.427900000000     0          
O415     O      0.500000000000     0.866970000000     0.427900000000     0          
O416     O      0.500000000000     0.366970000000     0.927900000000     0          
O417     O      0.133030000000     0.927900000000     0.000000000000     0          
O418     O      0.133030000000     0.427900000000     0.500000000000     0          
O419     O      0.633030000000     0.927900000000     0.500000000000     0          
O420     O      0.633030000000     0.427900000000     0.000000000000     0          
O421     O      0.133030000000     0.072100000000     0.000000000000     0          
O422     O      0.133030000000     0.572100000000     0.500000000000     0          
O423     O      0.633030000000     0.072100000000     0.500000000000     0          
O424     O      0.633030000000     0.572100000000     0.000000000000     0          
O425     O      0.866970000000     0.927900000000     0.000000000000     0          
O426     O      0.866970000000     0.427900000000     0.500000000000     0          
O427     O      0.366970000000     0.927900000000     0.500000000000     0          
O428     O      0.366970000000     0.427900000000     0.000000000000     0          
O429     O      0.866970000000     0.072100000000     0.000000000000     0          
O430     O      0.866970000000     0.572100000000     0.500000000000     0          
O431     O      0.366970000000     0.072100000000     0.500000000000     0          
O432     O      0.366970000000     0.572100000000     0.000000000000     0          
O433     O      0.954260000000     0.954260000000     0.045740000000     0          
O434     O      0.954260000000     0.454260000000     0.545740000000     0          
O435     O      0.454260000000     0.954260000000     0.545740000000     0          
O436     O      0.454260000000     0.454260000000     0.045740000000     0          
O437     O      0.045740000000     0.045740000000     0.045740000000     0          
O438     O      0.045740000000     0.545740000000     0.545740000000     0          
O439     O      0.545740000000     0.045740000000     0.545740000000     0          
O440     O      0.545740000000     0.545740000000     0.045740000000     0          
O441     O      0.045740000000     0.954260000000     0.954260000000     0          
O442     O      0.045740000000     0.454260000000     0.454260000000     0          
O443     O      0.545740000000     0.954260000000     0.454260000000     0          
O444     O      0.545740000000     0.454260000000     0.954260000000     0          
O445     O      0.954260000000     0.045740000000     0.954260000000     0          
O446     O      0.954260000000     0.545740000000     0.454260000000     0          
O447     O      0.454260000000     0.045740000000     0.454260000000     0          
O448     O      0.454260000000     0.545740000000     0.954260000000     0          
O449     O      0.954260000000     0.954260000000     0.954260000000     0          
O450     O      0.954260000000     0.454260000000     0.454260000000     0          
O451     O      0.454260000000     0.954260000000     0.454260000000     0          
O452     O      0.454260000000     0.454260000000     0.954260000000     0          
O453     O      0.045740000000     0.045740000000     0.954260000000     0          
O454     O      0.045740000000     0.545740000000     0.454260000000     0          
O455     O      0.545740000000     0.045740000000     0.454260000000     0          
O456     O      0.545740000000     0.545740000000     0.954260000000     0          
O457     O      0.954260000000     0.045740000000     0.045740000000     0          
O458     O      0.954260000000     0.545740000000     0.545740000000     0          
O459     O      0.454260000000     0.045740000000     0.545740000000     0          
O460     O      0.454260000000     0.545740000000     0.045740000000     0          
O461     O      0.045740000000     0.954260000000     0.045740000000     0          
O462     O      0.045740000000     0.454260000000     0.545740000000     0          
O463     O      0.545740000000     0.954260000000     0.545740000000     0          
O464     O      0.545740000000     0.454260000000     0.045740000000     0          
C465     C      0.000000000000     0.882650000000     0.117350000000     0          
C466     C      0.000000000000     0.843200000000     0.156800000000     0          
C467     C      0.000000000000     0.769770000000     0.230230000000     0          
C468     C      0.000000000000     0.382650000000     0.617350000000     0          
C469     C      0.000000000000     0.343200000000     0.656800000000     0          
C470     C      0.000000000000     0.269770000000     0.730230000000     0          
C471     C      0.500000000000     0.882650000000     0.617350000000     0          
C472     C      0.500000000000     0.843200000000     0.656800000000     0          
C473     C      0.500000000000     0.769770000000     0.730230000000     0          
C474     C      0.500000000000     0.382650000000     0.117350000000     0          
C475     C      0.500000000000     0.343200000000     0.156800000000     0          
C476     C      0.500000000000     0.269770000000     0.230230000000     0          
C477     C      0.000000000000     0.117350000000     0.117350000000     0          
C478     C      0.000000000000     0.156800000000     0.156800000000     0          
C479     C      0.000000000000     0.230230000000     0.230230000000     0          
C480     C      0.000000000000     0.617350000000     0.617350000000     0          
C481     C      0.000000000000     0.656800000000     0.656800000000     0          
C482     C      0.000000000000     0.730230000000     0.730230000000     0          
C483     C      0.500000000000     0.117350000000     0.617350000000     0          
C484     C      0.500000000000     0.156800000000     0.656800000000     0          
C485     C      0.500000000000     0.230230000000     0.730230000000     0          
C486     C      0.500000000000     0.617350000000     0.117350000000     0          
C487     C      0.500000000000     0.656800000000     0.156800000000     0          
C488     C      0.500000000000     0.730230000000     0.230230000000     0          
C489     C      0.000000000000     0.882650000000     0.882650000000     0          
C490     C      0.000000000000     0.843200000000     0.843200000000     0          
C491     C      0.000000000000     0.769770000000     0.769770000000     0          
C492     C      0.000000000000     0.382650000000     0.382650000000     0          
C493     C      0.000000000000     0.343200000000     0.343200000000     0          
C494     C      0.000000000000     0.269770000000     0.269770000000     0          
C495     C      0.500000000000     0.882650000000     0.382650000000     0          
C496     C      0.500000000000     0.843200000000     0.343200000000     0          
C497     C      0.500000000000     0.769770000000     0.269770000000     0          
C498     C      0.500000000000     0.382650000000     0.882650000000     0          
C499     C      0.500000000000     0.343200000000     0.843200000000     0          
C500     C      0.500000000000     0.269770000000     0.769770000000     0          
C501     C      0.000000000000     0.117350000000     0.882650000000     0          
C502     C      0.000000000000     0.156800000000     0.843200000000     0          
C503     C      0.000000000000     0.230230000000     0.769770000000     0          
C504     C      0.000000000000     0.617350000000     0.382650000000     0          
C505     C      0.000000000000     0.656800000000     0.343200000000     0          
C506     C      0.000000000000     0.730230000000     0.269770000000     0          
C507     C      0.500000000000     0.117350000000     0.382650000000     0          
C508     C      0.500000000000     0.156800000000     0.343200000000     0          
C509     C      0.500000000000     0.230230000000     0.269770000000     0          
C510     C      0.500000000000     0.617350000000     0.882650000000     0          
C511     C      0.500000000000     0.656800000000     0.843200000000     0          
C512     C      0.500000000000     0.730230000000     0.769770000000     0          
C513     C      0.117350000000     0.000000000000     0.882650000000     0          
C514     C      0.156800000000     0.000000000000     0.843200000000     0          
C515     C      0.230230000000     0.000000000000     0.769770000000     0          
C516     C      0.117350000000     0.500000000000     0.382650000000     0          
C517     C      0.156800000000     0.500000000000     0.343200000000     0          
C518     C      0.230230000000     0.500000000000     0.269770000000     0          
C519     C      0.617350000000     0.000000000000     0.382650000000     0          
C520     C      0.656800000000     0.000000000000     0.343200000000     0          
C521     C      0.730230000000     0.000000000000     0.269770000000     0          
C522     C      0.617350000000     0.500000000000     0.882650000000     0          
C523     C      0.656800000000     0.500000000000     0.843200000000     0          
C524     C      0.730230000000     0.500000000000     0.769770000000     0          
C525     C      0.117350000000     0.000000000000     0.117350000000     0          
C526     C      0.156800000000     0.000000000000     0.156800000000     0          
C527     C      0.230230000000     0.000000000000     0.230230000000     0          
C528     C      0.117350000000     0.500000000000     0.617350000000     0          
C529     C      0.156800000000     0.500000000000     0.656800000000     0          
C530     C      0.230230000000     0.500000000000     0.730230000000     0          
C531     C      0.617350000000     0.000000000000     0.617350000000     0          
C532     C      0.656800000000     0.000000000000     0.656800000000     0          
C533     C      0.730230000000     0.000000000000     0.730230000000     0          
C534     C      0.617350000000     0.500000000000     0.117350000000     0          
C535     C      0.656800000000     0.500000000000     0.156800000000     0          
C536     C      0.730230000000     0.500000000000     0.230230000000     0          
C537     C      0.882650000000     0.000000000000     0.882650000000     0          
C538     C      0.843200000000     0.000000000000     0.843200000000     0          
C539     C      0.769770000000     0.000000000000     0.769770000000     0          
C540     C      0.882650000000     0.500000000000     0.382650000000     0          
C541     C      0.843200000000     0.500000000000     0.343200000000     0          
C542     C      0.769770000000     0.500000000000     0.269770000000     0          
C543     C      0.382650000000     0.000000000000     0.382650000000     0          
C544     C      0.343200000000     0.000000000000     0.343200000000     0          
C545     C      0.269770000000     0.000000000000     0.269770000000     0          
C546     C      0.382650000000     0.500000000000     0.882650000000     0          
C547     C      0.343200000000     0.500000000000     0.843200000000     0          
C548     C      0.269770000000     0.500000000000     0.769770000000     0          
C549     C      0.882650000000     0.000000000000     0.117350000000     0          
C550     C      0.843200000000     0.000000000000     0.156800000000     0          
C551     C      0.769770000000     0.000000000000     0.230230000000     0          
C552     C      0.882650000000     0.500000000000     0.617350000000     0          
C553     C      0.843200000000     0.500000000000     0.656800000000     0          
C554     C      0.769770000000     0.500000000000     0.730230000000     0          
C555     C      0.382650000000     0.000000000000     0.617350000000     0          
C556     C      0.343200000000     0.000000000000     0.656800000000     0          
C557     C      0.269770000000     0.000000000000     0.730230000000     0          
C558     C      0.382650000000     0.500000000000     0.117350000000     0          
C559     C      0.343200000000     0.500000000000     0.156800000000     0          
C560     C      0.269770000000     0.500000000000     0.230230000000     0          
C561     C      0.882650000000     0.117350000000     0.000000000000     0          
C562     C      0.843200000000     0.156800000000     0.000000000000     0          
C563     C      0.769770000000     0.230230000000     0.000000000000     0          
C564     C      0.882650000000     0.617350000000     0.500000000000     0          
C565     C      0.843200000000     0.656800000000     0.500000000000     0          
C566     C      0.769770000000     0.730230000000     0.500000000000     0          
C567     C      0.382650000000     0.117350000000     0.500000000000     0          
C568     C      0.343200000000     0.156800000000     0.500000000000     0          
C569     C      0.269770000000     0.230230000000     0.500000000000     0          
C570     C      0.382650000000     0.617350000000     0.000000000000     0          
C571     C      0.343200000000     0.656800000000     0.000000000000     0          
C572     C      0.269770000000     0.730230000000     0.000000000000     0          
C573     C      0.117350000000     0.117350000000     0.000000000000     0          
C574     C      0.156800000000     0.156800000000     0.000000000000     0          
C575     C      0.230230000000     0.230230000000     0.000000000000     0          
C576     C      0.117350000000     0.617350000000     0.500000000000     0          
C577     C      0.156800000000     0.656800000000     0.500000000000     0          
C578     C      0.230230000000     0.730230000000     0.500000000000     0          
C579     C      0.617350000000     0.117350000000     0.500000000000     0          
C580     C      0.656800000000     0.156800000000     0.500000000000     0          
C581     C      0.730230000000     0.230230000000     0.500000000000     0          
C582     C      0.617350000000     0.617350000000     0.000000000000     0          
C583     C      0.656800000000     0.656800000000     0.000000000000     0          
C584     C      0.730230000000     0.730230000000     0.000000000000     0          
C585     C      0.882650000000     0.882650000000     0.000000000000     0          
C586     C      0.843200000000     0.843200000000     0.000000000000     0          
C587     C      0.769770000000     0.769770000000     0.000000000000     0          
C588     C      0.882650000000     0.382650000000     0.500000000000     0          
C589     C      0.843200000000     0.343200000000     0.500000000000     0          
C590     C      0.769770000000     0.269770000000     0.500000000000     0          
C591     C      0.382650000000     0.882650000000     0.500000000000     0          
C592     C      0.343200000000     0.843200000000     0.500000000000     0          
C593     C      0.269770000000     0.769770000000     0.500000000000     0          
C594     C      0.382650000000     0.382650000000     0.000000000000     0          
C595     C      0.343200000000     0.343200000000     0.000000000000     0          
C596     C      0.269770000000     0.269770000000     0.000000000000     0          
C597     C      0.117350000000     0.882650000000     0.000000000000     0          
C598     C      0.156800000000     0.843200000000     0.000000000000     0          
C599     C      0.230230000000     0.769770000000     0.000000000000     0          
C600     C      0.117350000000     0.382650000000     0.500000000000     0          
C601     C      0.156800000000     0.343200000000     0.500000000000     0          
C602     C      0.230230000000     0.269770000000     0.500000000000     0          
C603     C      0.617350000000     0.882650000000     0.500000000000     0          
C604     C      0.656800000000     0.843200000000     0.500000000000     0          
C605     C      0.730230000000     0.769770000000     0.500000000000     0          
C606     C      0.617350000000     0.382650000000     0.000000000000     0          
C607     C      0.656800000000     0.343200000000     0.000000000000     0          
C608     C      0.730230000000     0.269770000000     0.000000000000     0          
H609     H      0.283910000000     0.422210000000     0.641750000000     0          
H610     H      0.323190000000     0.464690000000     0.684220000000     0          
H611     H      0.218980000000     0.465320000000     0.828070000000     0          
H612     H      0.328070000000     0.534680000000     0.718980000000     0          
H613     H      0.171930000000     0.534680000000     0.781020000000     0          
H614     H      0.534680000000     0.328070000000     0.718980000000     0          
H615     H      0.578850000000     0.143100000000     0.783670000000     0          
H616     H      0.534250000000     0.182860000000     0.823430000000     0          
H617     H      0.465320000000     0.218980000000     0.828070000000     0          
H618     H      0.465320000000     0.281020000000     0.671930000000     0          
H619     H      0.421150000000     0.643100000000     0.283670000000     0          
H620     H      0.465750000000     0.682860000000     0.323430000000     0          
H621     H      0.465320000000     0.828070000000     0.218980000000     0          
H622     H      0.534680000000     0.781020000000     0.171930000000     0          
H623     H      0.534680000000     0.718980000000     0.328070000000     0          
H624     H      0.465320000000     0.171930000000     0.218980000000     0          
H625     H      0.465320000000     0.328070000000     0.281020000000     0          
H626     H      0.534680000000     0.281020000000     0.328070000000     0          
H627     H      0.526740000000     0.182330000000     0.148860000000     0          
H628     H      0.586360000000     0.210570000000     0.177110000000     0          
H629     H      0.473260000000     0.648860000000     0.682330000000     0          
H630     H      0.413640000000     0.677110000000     0.710570000000     0          
H631     H      0.465320000000     0.828070000000     0.781020000000     0          
H632     H      0.534680000000     0.718980000000     0.671930000000     0          
H633     H      0.534680000000     0.781020000000     0.828070000000     0          
H634     H      0.328070000000     0.281020000000     0.534680000000     0          
H635     H      0.171930000000     0.218980000000     0.534680000000     0          
H636     H      0.295800000000     0.312240000000     0.418670000000     0          
H637     H      0.311300000000     0.361790000000     0.468230000000     0          
H638     H      0.218980000000     0.171930000000     0.465320000000     0          
H639     H      0.671930000000     0.718980000000     0.465320000000     0          
H640     H      0.828070000000     0.781020000000     0.465320000000     0          
H641     H      0.688700000000     0.638210000000     0.531770000000     0          
H642     H      0.704200000000     0.687760000000     0.581330000000     0          
H643     H      0.781020000000     0.828070000000     0.534680000000     0          
H644     H      0.216090000000     0.422210000000     0.141750000000     0          
H645     H      0.176810000000     0.464690000000     0.184220000000     0          
H646     H      0.281020000000     0.465320000000     0.328070000000     0          
H647     H      0.328070000000     0.534680000000     0.281020000000     0          
H648     H      0.171930000000     0.534680000000     0.218980000000     0          
H649     H      0.828070000000     0.218980000000     0.534680000000     0          
H650     H      0.671930000000     0.281020000000     0.534680000000     0          
H651     H      0.718980000000     0.328070000000     0.465320000000     0          
H652     H      0.783910000000     0.141750000000     0.422210000000     0          
H653     H      0.823190000000     0.184220000000     0.464690000000     0          
H654     H      0.718980000000     0.534680000000     0.328070000000     0          
H655     H      0.781020000000     0.534680000000     0.171930000000     0          
H656     H      0.639260000000     0.424410000000     0.284510000000     0          
H657     H      0.686710000000     0.462490000000     0.322590000000     0          
H658     H      0.828070000000     0.465320000000     0.218980000000     0          
H659     H      0.781020000000     0.534680000000     0.828070000000     0          
H660     H      0.718980000000     0.534680000000     0.671930000000     0          
H661     H      0.671930000000     0.465320000000     0.718980000000     0          
H662     H      0.860740000000     0.424410000000     0.784510000000     0          
H663     H      0.813290000000     0.462490000000     0.822590000000     0          
H664     H      0.171930000000     0.781020000000     0.465320000000     0          
H665     H      0.302350000000     0.689900000000     0.436900000000     0          
H666     H      0.371680000000     0.703000000000     0.450000000000     0          
H667     H      0.281020000000     0.671930000000     0.534680000000     0          
H668     H      0.218980000000     0.828070000000     0.534680000000     0          
H669     H      0.965750000000     0.676570000000     0.817140000000     0          
H670     H      0.921150000000     0.716330000000     0.856900000000     0          
H671     H      0.965320000000     0.781020000000     0.671930000000     0          
H672     H      0.034680000000     0.828070000000     0.718980000000     0          
H673     H      0.034680000000     0.671930000000     0.781020000000     0          
H674     H      0.965320000000     0.218980000000     0.328070000000     0          
H675     H      0.921150000000     0.283670000000     0.143100000000     0          
H676     H      0.965750000000     0.323430000000     0.182860000000     0          
H677     H      0.034680000000     0.328070000000     0.218980000000     0          
H678     H      0.034680000000     0.171930000000     0.281020000000     0          
H679     H      0.965320000000     0.171930000000     0.718980000000     0          
H680     H      0.913640000000     0.322890000000     0.789430000000     0          
H681     H      0.973260000000     0.351140000000     0.817670000000     0          
H682     H      0.034680000000     0.218980000000     0.671930000000     0          
H683     H      0.034680000000     0.281020000000     0.828070000000     0          
H684     H      0.965320000000     0.671930000000     0.218980000000     0          
H685     H      0.965320000000     0.828070000000     0.281020000000     0          
H686     H      0.034680000000     0.718980000000     0.171930000000     0          
H687     H      0.086360000000     0.789430000000     0.322890000000     0          
H688     H      0.026740000000     0.817670000000     0.351140000000     0          
H689     H      0.639260000000     0.924410000000     0.784510000000     0          
H690     H      0.686710000000     0.962490000000     0.822590000000     0          
H691     H      0.828070000000     0.965320000000     0.718980000000     0          
H692     H      0.718980000000     0.034680000000     0.828070000000     0          
H693     H      0.781020000000     0.034680000000     0.671930000000     0          
H694     H      0.281020000000     0.965320000000     0.171930000000     0          
H695     H      0.204200000000     0.918670000000     0.312240000000     0          
H696     H      0.188700000000     0.968230000000     0.361790000000     0          
H697     H      0.328070000000     0.034680000000     0.218980000000     0          
H698     H      0.171930000000     0.034680000000     0.281020000000     0          
H699     H      0.218980000000     0.965320000000     0.671930000000     0          
H700     H      0.295800000000     0.918670000000     0.812240000000     0          
H701     H      0.311300000000     0.968230000000     0.861790000000     0          
H702     H      0.328070000000     0.034680000000     0.781020000000     0          
H703     H      0.171930000000     0.034680000000     0.718980000000     0          
H704     H      0.860740000000     0.924410000000     0.284510000000     0          
H705     H      0.813290000000     0.962490000000     0.322590000000     0          
H706     H      0.781020000000     0.965320000000     0.328070000000     0          
H707     H      0.718980000000     0.034680000000     0.171930000000     0          
H708     H      0.671930000000     0.034680000000     0.218980000000     0          
H709     H      0.781020000000     0.328070000000     0.965320000000     0          
H710     H      0.718980000000     0.171930000000     0.965320000000     0          
H711     H      0.828070000000     0.281020000000     0.034680000000     0          
H712     H      0.686710000000     0.177410000000     0.037510000000     0          
H713     H      0.639260000000     0.215490000000     0.075590000000     0          
H714     H      0.281020000000     0.828070000000     0.965320000000     0          
H715     H      0.216090000000     0.641750000000     0.922210000000     0          
H716     H      0.176810000000     0.684220000000     0.964690000000     0          
H717     H      0.328070000000     0.781020000000     0.034680000000     0          
H718     H      0.171930000000     0.718980000000     0.034680000000     0          
H719     H      0.218980000000     0.328070000000     0.965320000000     0          
H720     H      0.281020000000     0.171930000000     0.965320000000     0          
H721     H      0.328070000000     0.218980000000     0.034680000000     0          
H722     H      0.128320000000     0.297000000000     0.050000000000     0          
H723     H      0.197650000000     0.310100000000     0.063100000000     0          
H724     H      0.671930000000     0.781020000000     0.965320000000     0          
H725     H      0.828070000000     0.718980000000     0.965320000000     0          
H726     H      0.781020000000     0.671930000000     0.034680000000     0          
H727     H      0.676810000000     0.815780000000     0.035310000000     0          
H728     H      0.716090000000     0.858250000000     0.077790000000     0          


