data_KOPJUX

_audit_creation_method RASPA-1.0
_audit_creation_date 2020-11-2
_audit_author_name 'Rocio Bueno-Perez'

_cell_length_a    32.8112
_cell_length_b    32.8112
_cell_length_c    32.8112
_cell_angle_alpha 90
_cell_angle_beta  90
_cell_angle_gamma 90
_cell_volume      35323.7

_symmetry_cell_setting          cubic
_symmetry_space_group_name_Hall 'P 1'
_symmetry_space_group_name_H-M  'P 1'
_symmetry_Int_Tables_number     1

_symmetry_equiv_pos_as_xyz 'x,y,z'

loop_
_atom_site_label
_atom_site_type_symbol
_atom_site_fract_x
_atom_site_fract_y
_atom_site_fract_z
_atom_site_charge
Zr1      Zr     0.004730000000     0.995350000000     0.075030000000     0          
O2       O      0.963540000000     0.032570000000     0.040980000000     0          
O3       O      0.066260000000     0.995990000000     0.103780000000     0          
O4       O      0.947400000000     0.991210000000     0.111470000000     0          
O5       O      0.003560000000     0.051690000000     0.111750000000     0          
O6       O      0.008690000000     0.934030000000     0.104430000000     0          
C1       C      0.101630000000     0.001800000000     0.089090000000     0          
C2       C      0.911120000000     0.990960000000     0.101560000000     0          
C3       C      0.136100000000     0.000300000000     0.118300000000     0          
C4       C      0.880400000000     0.988400000000     0.135900000000     0          
C5       C      0.176000000000     0.001700000000     0.105000000000     0          
C6       C      0.129700000000     0.997200000000     0.159300000000     0          
C7       C      0.894500000000     0.988100000000     0.175900000000     0          
C8       C      0.840300000000     0.988000000000     0.129100000000     0          
H1       H      0.181700000000     0.003700000000     0.076700000000     0          
C9       C      0.207400000000     0.000300000000     0.132600000000     0          
C10      C      0.161200000000     0.999500000000     0.186900000000     0          
H2       H      0.102700000000     0.993400000000     0.169100000000     0          
H3       H      0.922800000000     0.986000000000     0.181300000000     0          
C11      C      0.867000000000     0.991000000000     0.207600000000     0          
C12      C      0.812100000000     0.986700000000     0.161400000000     0          
H4       H      0.830600000000     0.988600000000     0.101900000000     0          
H5       H      0.234600000000     0.998600000000     0.123100000000     0          
C13      C      0.200100000000     0.001400000000     0.174600000000     0          
H6       H      0.155300000000     0.999600000000     0.215200000000     0          
H7       H      0.876200000000     0.995900000000     0.234600000000     0          
C14      C      0.826100000000     0.986800000000     0.199700000000     0          
H8       H      0.783700000000     0.985900000000     0.156100000000     0          
C15      C      0.236200000000     0.001000000000     0.201300000000     0          
C16      C      0.797900000000     0.985300000000     0.235700000000     0          
H9       H      0.262900000000     0.001400000000     0.190200000000     0          
N1       N      0.230700000000     0.000200000000     0.239900000000     0          
H10      H      0.809000000000     0.985000000000     0.262500000000     0          
N2       N      0.760800000000     0.984500000000     0.231200000000     0          
O1       O      0.036600000000     0.036600000000     0.036600000000     0          
Zr1      Zr     0.495270000000     0.504650000000     0.075030000000     0          
O2       O      0.536460000000     0.467430000000     0.040980000000     0          
O3       O      0.433740000000     0.504010000000     0.103780000000     0          
O4       O      0.552600000000     0.508790000000     0.111470000000     0          
O5       O      0.496440000000     0.448310000000     0.111750000000     0          
O6       O      0.491310000000     0.565970000000     0.104430000000     0          
C1       C      0.398370000000     0.498200000000     0.089090000000     0          
C2       C      0.588880000000     0.509040000000     0.101560000000     0          
C3       C      0.363900000000     0.499700000000     0.118300000000     0          
C4       C      0.619600000000     0.511600000000     0.135900000000     0          
C5       C      0.324000000000     0.498300000000     0.105000000000     0          
C6       C      0.370300000000     0.502800000000     0.159300000000     0          
C7       C      0.605500000000     0.511900000000     0.175900000000     0          
C8       C      0.659700000000     0.512000000000     0.129100000000     0          
H1       H      0.318300000000     0.496300000000     0.076700000000     0          
C9       C      0.292600000000     0.499700000000     0.132600000000     0          
C10      C      0.338800000000     0.500500000000     0.186900000000     0          
H2       H      0.397300000000     0.506600000000     0.169100000000     0          
H3       H      0.577200000000     0.514000000000     0.181300000000     0          
C11      C      0.633000000000     0.509000000000     0.207600000000     0          
C12      C      0.687900000000     0.513300000000     0.161400000000     0          
H4       H      0.669400000000     0.511400000000     0.101900000000     0          
H5       H      0.265400000000     0.501400000000     0.123100000000     0          
C13      C      0.299900000000     0.498600000000     0.174600000000     0          
H6       H      0.344700000000     0.500400000000     0.215200000000     0          
H7       H      0.623800000000     0.504100000000     0.234600000000     0          
C14      C      0.673900000000     0.513200000000     0.199700000000     0          
H8       H      0.716300000000     0.514100000000     0.156100000000     0          
C15      C      0.263800000000     0.499000000000     0.201300000000     0          
C16      C      0.702100000000     0.514700000000     0.235700000000     0          
H9       H      0.237100000000     0.498600000000     0.190200000000     0          
N1       N      0.269300000000     0.499800000000     0.239900000000     0          
H10      H      0.691000000000     0.515000000000     0.262500000000     0          
N2       N      0.739200000000     0.515500000000     0.231200000000     0          
O1       O      0.463400000000     0.463400000000     0.036600000000     0          
Zr1      Zr     0.004730000000     0.504650000000     0.424970000000     0          
O2       O      0.963540000000     0.467430000000     0.459020000000     0          
O3       O      0.066260000000     0.504010000000     0.396220000000     0          
O4       O      0.947400000000     0.508790000000     0.388530000000     0          
O5       O      0.003560000000     0.448310000000     0.388250000000     0          
O6       O      0.008690000000     0.565970000000     0.395570000000     0          
C1       C      0.101630000000     0.498200000000     0.410910000000     0          
C2       C      0.911120000000     0.509040000000     0.398440000000     0          
C3       C      0.136100000000     0.499700000000     0.381700000000     0          
C4       C      0.880400000000     0.511600000000     0.364100000000     0          
C5       C      0.176000000000     0.498300000000     0.395000000000     0          
C6       C      0.129700000000     0.502800000000     0.340700000000     0          
C7       C      0.894500000000     0.511900000000     0.324100000000     0          
C8       C      0.840300000000     0.512000000000     0.370900000000     0          
H1       H      0.181700000000     0.496300000000     0.423300000000     0          
C9       C      0.207400000000     0.499700000000     0.367400000000     0          
C10      C      0.161200000000     0.500500000000     0.313100000000     0          
H2       H      0.102700000000     0.506600000000     0.330900000000     0          
H3       H      0.922800000000     0.514000000000     0.318700000000     0          
C11      C      0.867000000000     0.509000000000     0.292400000000     0          
C12      C      0.812100000000     0.513300000000     0.338600000000     0          
H4       H      0.830600000000     0.511400000000     0.398100000000     0          
H5       H      0.234600000000     0.501400000000     0.376900000000     0          
C13      C      0.200100000000     0.498600000000     0.325400000000     0          
H6       H      0.155300000000     0.500400000000     0.284800000000     0          
H7       H      0.876200000000     0.504100000000     0.265400000000     0          
C14      C      0.826100000000     0.513200000000     0.300300000000     0          
H8       H      0.783700000000     0.514100000000     0.343900000000     0          
C15      C      0.236200000000     0.499000000000     0.298700000000     0          
C16      C      0.797900000000     0.514700000000     0.264300000000     0          
H9       H      0.262900000000     0.498600000000     0.309800000000     0          
N1       N      0.230700000000     0.499800000000     0.260100000000     0          
H10      H      0.809000000000     0.515000000000     0.237500000000     0          
N2       N      0.760800000000     0.515500000000     0.268800000000     0          
O1       O      0.036600000000     0.463400000000     0.463400000000     0          
Zr1      Zr     0.495270000000     0.995350000000     0.424970000000     0          
O2       O      0.536460000000     0.032570000000     0.459020000000     0          
O3       O      0.433740000000     0.995990000000     0.396220000000     0          
O4       O      0.552600000000     0.991210000000     0.388530000000     0          
O5       O      0.496440000000     0.051690000000     0.388250000000     0          
O6       O      0.491310000000     0.934030000000     0.395570000000     0          
C1       C      0.398370000000     0.001800000000     0.410910000000     0          
C2       C      0.588880000000     0.990960000000     0.398440000000     0          
C3       C      0.363900000000     0.000300000000     0.381700000000     0          
C4       C      0.619600000000     0.988400000000     0.364100000000     0          
C5       C      0.324000000000     0.001700000000     0.395000000000     0          
C6       C      0.370300000000     0.997200000000     0.340700000000     0          
C7       C      0.605500000000     0.988100000000     0.324100000000     0          
C8       C      0.659700000000     0.988000000000     0.370900000000     0          
H1       H      0.318300000000     0.003700000000     0.423300000000     0          
C9       C      0.292600000000     0.000300000000     0.367400000000     0          
C10      C      0.338800000000     0.999500000000     0.313100000000     0          
H2       H      0.397300000000     0.993400000000     0.330900000000     0          
H3       H      0.577200000000     0.986000000000     0.318700000000     0          
C11      C      0.633000000000     0.991000000000     0.292400000000     0          
C12      C      0.687900000000     0.986700000000     0.338600000000     0          
H4       H      0.669400000000     0.988600000000     0.398100000000     0          
H5       H      0.265400000000     0.998600000000     0.376900000000     0          
C13      C      0.299900000000     0.001400000000     0.325400000000     0          
H6       H      0.344700000000     0.999600000000     0.284800000000     0          
H7       H      0.623800000000     0.995900000000     0.265400000000     0          
C14      C      0.673900000000     0.986800000000     0.300300000000     0          
H8       H      0.716300000000     0.985900000000     0.343900000000     0          
C15      C      0.263800000000     0.001000000000     0.298700000000     0          
C16      C      0.702100000000     0.985300000000     0.264300000000     0          
H9       H      0.237100000000     0.001400000000     0.309800000000     0          
N1       N      0.269300000000     0.000200000000     0.260100000000     0          
H10      H      0.691000000000     0.985000000000     0.237500000000     0          
N2       N      0.739200000000     0.984500000000     0.268800000000     0          
O1       O      0.463400000000     0.036600000000     0.463400000000     0          
Zr1      Zr     0.075030000000     0.004730000000     0.995350000000     0          
O2       O      0.040980000000     0.963540000000     0.032570000000     0          
O3       O      0.103780000000     0.066260000000     0.995990000000     0          
O4       O      0.111470000000     0.947400000000     0.991210000000     0          
O5       O      0.111750000000     0.003560000000     0.051690000000     0          
O6       O      0.104430000000     0.008690000000     0.934030000000     0          
C1       C      0.089090000000     0.101630000000     0.001800000000     0          
C2       C      0.101560000000     0.911120000000     0.990960000000     0          
C3       C      0.118300000000     0.136100000000     0.000300000000     0          
C4       C      0.135900000000     0.880400000000     0.988400000000     0          
C5       C      0.105000000000     0.176000000000     0.001700000000     0          
C6       C      0.159300000000     0.129700000000     0.997200000000     0          
C7       C      0.175900000000     0.894500000000     0.988100000000     0          
C8       C      0.129100000000     0.840300000000     0.988000000000     0          
H1       H      0.076700000000     0.181700000000     0.003700000000     0          
C9       C      0.132600000000     0.207400000000     0.000300000000     0          
C10      C      0.186900000000     0.161200000000     0.999500000000     0          
H2       H      0.169100000000     0.102700000000     0.993400000000     0          
H3       H      0.181300000000     0.922800000000     0.986000000000     0          
C11      C      0.207600000000     0.867000000000     0.991000000000     0          
C12      C      0.161400000000     0.812100000000     0.986700000000     0          
H4       H      0.101900000000     0.830600000000     0.988600000000     0          
H5       H      0.123100000000     0.234600000000     0.998600000000     0          
C13      C      0.174600000000     0.200100000000     0.001400000000     0          
H6       H      0.215200000000     0.155300000000     0.999600000000     0          
H7       H      0.234600000000     0.876200000000     0.995900000000     0          
C14      C      0.199700000000     0.826100000000     0.986800000000     0          
H8       H      0.156100000000     0.783700000000     0.985900000000     0          
C15      C      0.201300000000     0.236200000000     0.001000000000     0          
C16      C      0.235700000000     0.797900000000     0.985300000000     0          
H9       H      0.190200000000     0.262900000000     0.001400000000     0          
N1       N      0.239900000000     0.230700000000     0.000200000000     0          
H10      H      0.262500000000     0.809000000000     0.985000000000     0          
N2       N      0.231200000000     0.760800000000     0.984500000000     0          
Zr1      Zr     0.424970000000     0.495270000000     0.995350000000     0          
O2       O      0.459020000000     0.536460000000     0.032570000000     0          
O3       O      0.396220000000     0.433740000000     0.995990000000     0          
O4       O      0.388530000000     0.552600000000     0.991210000000     0          
O5       O      0.388250000000     0.496440000000     0.051690000000     0          
O6       O      0.395570000000     0.491310000000     0.934030000000     0          
C1       C      0.410910000000     0.398370000000     0.001800000000     0          
C2       C      0.398440000000     0.588880000000     0.990960000000     0          
C3       C      0.381700000000     0.363900000000     0.000300000000     0          
C4       C      0.364100000000     0.619600000000     0.988400000000     0          
C5       C      0.395000000000     0.324000000000     0.001700000000     0          
C6       C      0.340700000000     0.370300000000     0.997200000000     0          
C7       C      0.324100000000     0.605500000000     0.988100000000     0          
C8       C      0.370900000000     0.659700000000     0.988000000000     0          
H1       H      0.423300000000     0.318300000000     0.003700000000     0          
C9       C      0.367400000000     0.292600000000     0.000300000000     0          
C10      C      0.313100000000     0.338800000000     0.999500000000     0          
H2       H      0.330900000000     0.397300000000     0.993400000000     0          
H3       H      0.318700000000     0.577200000000     0.986000000000     0          
C11      C      0.292400000000     0.633000000000     0.991000000000     0          
C12      C      0.338600000000     0.687900000000     0.986700000000     0          
H4       H      0.398100000000     0.669400000000     0.988600000000     0          
H5       H      0.376900000000     0.265400000000     0.998600000000     0          
C13      C      0.325400000000     0.299900000000     0.001400000000     0          
H6       H      0.284800000000     0.344700000000     0.999600000000     0          
H7       H      0.265400000000     0.623800000000     0.995900000000     0          
C14      C      0.300300000000     0.673900000000     0.986800000000     0          
H8       H      0.343900000000     0.716300000000     0.985900000000     0          
C15      C      0.298700000000     0.263800000000     0.001000000000     0          
C16      C      0.264300000000     0.702100000000     0.985300000000     0          
H9       H      0.309800000000     0.237100000000     0.001400000000     0          
N1       N      0.260100000000     0.269300000000     0.000200000000     0          
H10      H      0.237500000000     0.691000000000     0.985000000000     0          
N2       N      0.268800000000     0.739200000000     0.984500000000     0          
Zr1      Zr     0.075030000000     0.495270000000     0.504650000000     0          
O2       O      0.040980000000     0.536460000000     0.467430000000     0          
O3       O      0.103780000000     0.433740000000     0.504010000000     0          
O4       O      0.111470000000     0.552600000000     0.508790000000     0          
O5       O      0.111750000000     0.496440000000     0.448310000000     0          
O6       O      0.104430000000     0.491310000000     0.565970000000     0          
C1       C      0.089090000000     0.398370000000     0.498200000000     0          
C2       C      0.101560000000     0.588880000000     0.509040000000     0          
C3       C      0.118300000000     0.363900000000     0.499700000000     0          
C4       C      0.135900000000     0.619600000000     0.511600000000     0          
C5       C      0.105000000000     0.324000000000     0.498300000000     0          
C6       C      0.159300000000     0.370300000000     0.502800000000     0          
C7       C      0.175900000000     0.605500000000     0.511900000000     0          
C8       C      0.129100000000     0.659700000000     0.512000000000     0          
H1       H      0.076700000000     0.318300000000     0.496300000000     0          
C9       C      0.132600000000     0.292600000000     0.499700000000     0          
C10      C      0.186900000000     0.338800000000     0.500500000000     0          
H2       H      0.169100000000     0.397300000000     0.506600000000     0          
H3       H      0.181300000000     0.577200000000     0.514000000000     0          
C11      C      0.207600000000     0.633000000000     0.509000000000     0          
C12      C      0.161400000000     0.687900000000     0.513300000000     0          
H4       H      0.101900000000     0.669400000000     0.511400000000     0          
H5       H      0.123100000000     0.265400000000     0.501400000000     0          
C13      C      0.174600000000     0.299900000000     0.498600000000     0          
H6       H      0.215200000000     0.344700000000     0.500400000000     0          
H7       H      0.234600000000     0.623800000000     0.504100000000     0          
C14      C      0.199700000000     0.673900000000     0.513200000000     0          
H8       H      0.156100000000     0.716300000000     0.514100000000     0          
C15      C      0.201300000000     0.263800000000     0.499000000000     0          
C16      C      0.235700000000     0.702100000000     0.514700000000     0          
H9       H      0.190200000000     0.237100000000     0.498600000000     0          
N1       N      0.239900000000     0.269300000000     0.499800000000     0          
H10      H      0.262500000000     0.691000000000     0.515000000000     0          
N2       N      0.231200000000     0.739200000000     0.515500000000     0          
Zr1      Zr     0.424970000000     0.004730000000     0.504650000000     0          
O2       O      0.459020000000     0.963540000000     0.467430000000     0          
O3       O      0.396220000000     0.066260000000     0.504010000000     0          
O4       O      0.388530000000     0.947400000000     0.508790000000     0          
O5       O      0.388250000000     0.003560000000     0.448310000000     0          
O6       O      0.395570000000     0.008690000000     0.565970000000     0          
C1       C      0.410910000000     0.101630000000     0.498200000000     0          
C2       C      0.398440000000     0.911120000000     0.509040000000     0          
C3       C      0.381700000000     0.136100000000     0.499700000000     0          
C4       C      0.364100000000     0.880400000000     0.511600000000     0          
C5       C      0.395000000000     0.176000000000     0.498300000000     0          
C6       C      0.340700000000     0.129700000000     0.502800000000     0          
C7       C      0.324100000000     0.894500000000     0.511900000000     0          
C8       C      0.370900000000     0.840300000000     0.512000000000     0          
H1       H      0.423300000000     0.181700000000     0.496300000000     0          
C9       C      0.367400000000     0.207400000000     0.499700000000     0          
C10      C      0.313100000000     0.161200000000     0.500500000000     0          
H2       H      0.330900000000     0.102700000000     0.506600000000     0          
H3       H      0.318700000000     0.922800000000     0.514000000000     0          
C11      C      0.292400000000     0.867000000000     0.509000000000     0          
C12      C      0.338600000000     0.812100000000     0.513300000000     0          
H4       H      0.398100000000     0.830600000000     0.511400000000     0          
H5       H      0.376900000000     0.234600000000     0.501400000000     0          
C13      C      0.325400000000     0.200100000000     0.498600000000     0          
H6       H      0.284800000000     0.155300000000     0.500400000000     0          
H7       H      0.265400000000     0.876200000000     0.504100000000     0          
C14      C      0.300300000000     0.826100000000     0.513200000000     0          
H8       H      0.343900000000     0.783700000000     0.514100000000     0          
C15      C      0.298700000000     0.236200000000     0.499000000000     0          
C16      C      0.264300000000     0.797900000000     0.514700000000     0          
H9       H      0.309800000000     0.262900000000     0.498600000000     0          
N1       N      0.260100000000     0.230700000000     0.499800000000     0          
H10      H      0.237500000000     0.809000000000     0.515000000000     0          
N2       N      0.268800000000     0.760800000000     0.515500000000     0          
Zr1      Zr     0.995350000000     0.075030000000     0.004730000000     0          
O2       O      0.032570000000     0.040980000000     0.963540000000     0          
O3       O      0.995990000000     0.103780000000     0.066260000000     0          
O4       O      0.991210000000     0.111470000000     0.947400000000     0          
O5       O      0.051690000000     0.111750000000     0.003560000000     0          
O6       O      0.934030000000     0.104430000000     0.008690000000     0          
C1       C      0.001800000000     0.089090000000     0.101630000000     0          
C2       C      0.990960000000     0.101560000000     0.911120000000     0          
C3       C      0.000300000000     0.118300000000     0.136100000000     0          
C4       C      0.988400000000     0.135900000000     0.880400000000     0          
C5       C      0.001700000000     0.105000000000     0.176000000000     0          
C6       C      0.997200000000     0.159300000000     0.129700000000     0          
C7       C      0.988100000000     0.175900000000     0.894500000000     0          
C8       C      0.988000000000     0.129100000000     0.840300000000     0          
H1       H      0.003700000000     0.076700000000     0.181700000000     0          
C9       C      0.000300000000     0.132600000000     0.207400000000     0          
C10      C      0.999500000000     0.186900000000     0.161200000000     0          
H2       H      0.993400000000     0.169100000000     0.102700000000     0          
H3       H      0.986000000000     0.181300000000     0.922800000000     0          
C11      C      0.991000000000     0.207600000000     0.867000000000     0          
C12      C      0.986700000000     0.161400000000     0.812100000000     0          
H4       H      0.988600000000     0.101900000000     0.830600000000     0          
H5       H      0.998600000000     0.123100000000     0.234600000000     0          
C13      C      0.001400000000     0.174600000000     0.200100000000     0          
H6       H      0.999600000000     0.215200000000     0.155300000000     0          
H7       H      0.995900000000     0.234600000000     0.876200000000     0          
C14      C      0.986800000000     0.199700000000     0.826100000000     0          
H8       H      0.985900000000     0.156100000000     0.783700000000     0          
C15      C      0.001000000000     0.201300000000     0.236200000000     0          
C16      C      0.985300000000     0.235700000000     0.797900000000     0          
H9       H      0.001400000000     0.190200000000     0.262900000000     0          
N1       N      0.000200000000     0.239900000000     0.230700000000     0          
H10      H      0.985000000000     0.262500000000     0.809000000000     0          
N2       N      0.984500000000     0.231200000000     0.760800000000     0          
Zr1      Zr     0.995350000000     0.424970000000     0.495270000000     0          
O2       O      0.032570000000     0.459020000000     0.536460000000     0          
O3       O      0.995990000000     0.396220000000     0.433740000000     0          
O4       O      0.991210000000     0.388530000000     0.552600000000     0          
O5       O      0.051690000000     0.388250000000     0.496440000000     0          
O6       O      0.934030000000     0.395570000000     0.491310000000     0          
C1       C      0.001800000000     0.410910000000     0.398370000000     0          
C2       C      0.990960000000     0.398440000000     0.588880000000     0          
C3       C      0.000300000000     0.381700000000     0.363900000000     0          
C4       C      0.988400000000     0.364100000000     0.619600000000     0          
C5       C      0.001700000000     0.395000000000     0.324000000000     0          
C6       C      0.997200000000     0.340700000000     0.370300000000     0          
C7       C      0.988100000000     0.324100000000     0.605500000000     0          
C8       C      0.988000000000     0.370900000000     0.659700000000     0          
H1       H      0.003700000000     0.423300000000     0.318300000000     0          
C9       C      0.000300000000     0.367400000000     0.292600000000     0          
C10      C      0.999500000000     0.313100000000     0.338800000000     0          
H2       H      0.993400000000     0.330900000000     0.397300000000     0          
H3       H      0.986000000000     0.318700000000     0.577200000000     0          
C11      C      0.991000000000     0.292400000000     0.633000000000     0          
C12      C      0.986700000000     0.338600000000     0.687900000000     0          
H4       H      0.988600000000     0.398100000000     0.669400000000     0          
H5       H      0.998600000000     0.376900000000     0.265400000000     0          
C13      C      0.001400000000     0.325400000000     0.299900000000     0          
H6       H      0.999600000000     0.284800000000     0.344700000000     0          
H7       H      0.995900000000     0.265400000000     0.623800000000     0          
C14      C      0.986800000000     0.300300000000     0.673900000000     0          
H8       H      0.985900000000     0.343900000000     0.716300000000     0          
C15      C      0.001000000000     0.298700000000     0.263800000000     0          
C16      C      0.985300000000     0.264300000000     0.702100000000     0          
H9       H      0.001400000000     0.309800000000     0.237100000000     0          
N1       N      0.000200000000     0.260100000000     0.269300000000     0          
H10      H      0.985000000000     0.237500000000     0.691000000000     0          
N2       N      0.984500000000     0.268800000000     0.739200000000     0          
Zr1      Zr     0.504650000000     0.075030000000     0.495270000000     0          
O2       O      0.467430000000     0.040980000000     0.536460000000     0          
O3       O      0.504010000000     0.103780000000     0.433740000000     0          
O4       O      0.508790000000     0.111470000000     0.552600000000     0          
O5       O      0.448310000000     0.111750000000     0.496440000000     0          
O6       O      0.565970000000     0.104430000000     0.491310000000     0          
C1       C      0.498200000000     0.089090000000     0.398370000000     0          
C2       C      0.509040000000     0.101560000000     0.588880000000     0          
C3       C      0.499700000000     0.118300000000     0.363900000000     0          
C4       C      0.511600000000     0.135900000000     0.619600000000     0          
C5       C      0.498300000000     0.105000000000     0.324000000000     0          
C6       C      0.502800000000     0.159300000000     0.370300000000     0          
C7       C      0.511900000000     0.175900000000     0.605500000000     0          
C8       C      0.512000000000     0.129100000000     0.659700000000     0          
H1       H      0.496300000000     0.076700000000     0.318300000000     0          
C9       C      0.499700000000     0.132600000000     0.292600000000     0          
C10      C      0.500500000000     0.186900000000     0.338800000000     0          
H2       H      0.506600000000     0.169100000000     0.397300000000     0          
H3       H      0.514000000000     0.181300000000     0.577200000000     0          
C11      C      0.509000000000     0.207600000000     0.633000000000     0          
C12      C      0.513300000000     0.161400000000     0.687900000000     0          
H4       H      0.511400000000     0.101900000000     0.669400000000     0          
H5       H      0.501400000000     0.123100000000     0.265400000000     0          
C13      C      0.498600000000     0.174600000000     0.299900000000     0          
H6       H      0.500400000000     0.215200000000     0.344700000000     0          
H7       H      0.504100000000     0.234600000000     0.623800000000     0          
C14      C      0.513200000000     0.199700000000     0.673900000000     0          
H8       H      0.514100000000     0.156100000000     0.716300000000     0          
C15      C      0.499000000000     0.201300000000     0.263800000000     0          
C16      C      0.514700000000     0.235700000000     0.702100000000     0          
H9       H      0.498600000000     0.190200000000     0.237100000000     0          
N1       N      0.499800000000     0.239900000000     0.269300000000     0          
H10      H      0.515000000000     0.262500000000     0.691000000000     0          
N2       N      0.515500000000     0.231200000000     0.739200000000     0          
Zr1      Zr     0.504650000000     0.424970000000     0.004730000000     0          
O2       O      0.467430000000     0.459020000000     0.963540000000     0          
O3       O      0.504010000000     0.396220000000     0.066260000000     0          
O4       O      0.508790000000     0.388530000000     0.947400000000     0          
O5       O      0.448310000000     0.388250000000     0.003560000000     0          
O6       O      0.565970000000     0.395570000000     0.008690000000     0          
C1       C      0.498200000000     0.410910000000     0.101630000000     0          
C2       C      0.509040000000     0.398440000000     0.911120000000     0          
C3       C      0.499700000000     0.381700000000     0.136100000000     0          
C4       C      0.511600000000     0.364100000000     0.880400000000     0          
C5       C      0.498300000000     0.395000000000     0.176000000000     0          
C6       C      0.502800000000     0.340700000000     0.129700000000     0          
C7       C      0.511900000000     0.324100000000     0.894500000000     0          
C8       C      0.512000000000     0.370900000000     0.840300000000     0          
H1       H      0.496300000000     0.423300000000     0.181700000000     0          
C9       C      0.499700000000     0.367400000000     0.207400000000     0          
C10      C      0.500500000000     0.313100000000     0.161200000000     0          
H2       H      0.506600000000     0.330900000000     0.102700000000     0          
H3       H      0.514000000000     0.318700000000     0.922800000000     0          
C11      C      0.509000000000     0.292400000000     0.867000000000     0          
C12      C      0.513300000000     0.338600000000     0.812100000000     0          
H4       H      0.511400000000     0.398100000000     0.830600000000     0          
H5       H      0.501400000000     0.376900000000     0.234600000000     0          
C13      C      0.498600000000     0.325400000000     0.200100000000     0          
H6       H      0.500400000000     0.284800000000     0.155300000000     0          
H7       H      0.504100000000     0.265400000000     0.876200000000     0          
C14      C      0.513200000000     0.300300000000     0.826100000000     0          
H8       H      0.514100000000     0.343900000000     0.783700000000     0          
C15      C      0.499000000000     0.298700000000     0.236200000000     0          
C16      C      0.514700000000     0.264300000000     0.797900000000     0          
H9       H      0.498600000000     0.309800000000     0.262900000000     0          
N1       N      0.499800000000     0.260100000000     0.230700000000     0          
H10      H      0.515000000000     0.237500000000     0.809000000000     0          
N2       N      0.515500000000     0.268800000000     0.760800000000     0          
Zr1      Zr     0.995270000000     0.004650000000     0.924970000000     0          
O2       O      0.036460000000     0.967430000000     0.959020000000     0          
O3       O      0.933740000000     0.004010000000     0.896220000000     0          
O4       O      0.052600000000     0.008790000000     0.888530000000     0          
O5       O      0.996440000000     0.948310000000     0.888250000000     0          
O6       O      0.991310000000     0.065970000000     0.895570000000     0          
C1       C      0.898370000000     0.998200000000     0.910910000000     0          
C2       C      0.088880000000     0.009040000000     0.898440000000     0          
C3       C      0.863900000000     0.999700000000     0.881700000000     0          
C4       C      0.119600000000     0.011600000000     0.864100000000     0          
C5       C      0.824000000000     0.998300000000     0.895000000000     0          
C6       C      0.870300000000     0.002800000000     0.840700000000     0          
C7       C      0.105500000000     0.011900000000     0.824100000000     0          
C8       C      0.159700000000     0.012000000000     0.870900000000     0          
H1       H      0.818300000000     0.996300000000     0.923300000000     0          
C9       C      0.792600000000     0.999700000000     0.867400000000     0          
C10      C      0.838800000000     0.000500000000     0.813100000000     0          
H2       H      0.897300000000     0.006600000000     0.830900000000     0          
H3       H      0.077200000000     0.014000000000     0.818700000000     0          
C11      C      0.133000000000     0.009000000000     0.792400000000     0          
C12      C      0.187900000000     0.013300000000     0.838600000000     0          
H4       H      0.169400000000     0.011400000000     0.898100000000     0          
H5       H      0.765400000000     0.001400000000     0.876900000000     0          
C13      C      0.799900000000     0.998600000000     0.825400000000     0          
H6       H      0.844700000000     0.000400000000     0.784800000000     0          
H7       H      0.123800000000     0.004100000000     0.765400000000     0          
C14      C      0.173900000000     0.013200000000     0.800300000000     0          
H8       H      0.216300000000     0.014100000000     0.843900000000     0          
C15      C      0.763800000000     0.999000000000     0.798700000000     0          
C16      C      0.202100000000     0.014700000000     0.764300000000     0          
H9       H      0.737100000000     0.998600000000     0.809800000000     0          
N1       N      0.769300000000     0.999800000000     0.760100000000     0          
H10      H      0.191000000000     0.015000000000     0.737500000000     0          
N2       N      0.239200000000     0.015500000000     0.768800000000     0          
O1       O      0.963400000000     0.963400000000     0.963400000000     0          
Zr1      Zr     0.504730000000     0.495350000000     0.924970000000     0          
O2       O      0.463540000000     0.532570000000     0.959020000000     0          
O3       O      0.566260000000     0.495990000000     0.896220000000     0          
O4       O      0.447400000000     0.491210000000     0.888530000000     0          
O5       O      0.503560000000     0.551690000000     0.888250000000     0          
O6       O      0.508690000000     0.434030000000     0.895570000000     0          
C1       C      0.601630000000     0.501800000000     0.910910000000     0          
C2       C      0.411120000000     0.490960000000     0.898440000000     0          
C3       C      0.636100000000     0.500300000000     0.881700000000     0          
C4       C      0.380400000000     0.488400000000     0.864100000000     0          
C5       C      0.676000000000     0.501700000000     0.895000000000     0          
C6       C      0.629700000000     0.497200000000     0.840700000000     0          
C7       C      0.394500000000     0.488100000000     0.824100000000     0          
C8       C      0.340300000000     0.488000000000     0.870900000000     0          
H1       H      0.681700000000     0.503700000000     0.923300000000     0          
C9       C      0.707400000000     0.500300000000     0.867400000000     0          
C10      C      0.661200000000     0.499500000000     0.813100000000     0          
H2       H      0.602700000000     0.493400000000     0.830900000000     0          
H3       H      0.422800000000     0.486000000000     0.818700000000     0          
C11      C      0.367000000000     0.491000000000     0.792400000000     0          
C12      C      0.312100000000     0.486700000000     0.838600000000     0          
H4       H      0.330600000000     0.488600000000     0.898100000000     0          
H5       H      0.734600000000     0.498600000000     0.876900000000     0          
C13      C      0.700100000000     0.501400000000     0.825400000000     0          
H6       H      0.655300000000     0.499600000000     0.784800000000     0          
H7       H      0.376200000000     0.495900000000     0.765400000000     0          
C14      C      0.326100000000     0.486800000000     0.800300000000     0          
H8       H      0.283700000000     0.485900000000     0.843900000000     0          
C15      C      0.736200000000     0.501000000000     0.798700000000     0          
C16      C      0.297900000000     0.485300000000     0.764300000000     0          
H9       H      0.762900000000     0.501400000000     0.809800000000     0          
N1       N      0.730700000000     0.500200000000     0.760100000000     0          
H10      H      0.309000000000     0.485000000000     0.737500000000     0          
N2       N      0.260800000000     0.484500000000     0.768800000000     0          
O1       O      0.536600000000     0.536600000000     0.963400000000     0          
Zr1      Zr     0.995270000000     0.495350000000     0.575030000000     0          
O2       O      0.036460000000     0.532570000000     0.540980000000     0          
O3       O      0.933740000000     0.495990000000     0.603780000000     0          
O4       O      0.052600000000     0.491210000000     0.611470000000     0          
O5       O      0.996440000000     0.551690000000     0.611750000000     0          
O6       O      0.991310000000     0.434030000000     0.604430000000     0          
C1       C      0.898370000000     0.501800000000     0.589090000000     0          
C2       C      0.088880000000     0.490960000000     0.601560000000     0          
C3       C      0.863900000000     0.500300000000     0.618300000000     0          
C4       C      0.119600000000     0.488400000000     0.635900000000     0          
C5       C      0.824000000000     0.501700000000     0.605000000000     0          
C6       C      0.870300000000     0.497200000000     0.659300000000     0          
C7       C      0.105500000000     0.488100000000     0.675900000000     0          
C8       C      0.159700000000     0.488000000000     0.629100000000     0          
H1       H      0.818300000000     0.503700000000     0.576700000000     0          
C9       C      0.792600000000     0.500300000000     0.632600000000     0          
C10      C      0.838800000000     0.499500000000     0.686900000000     0          
H2       H      0.897300000000     0.493400000000     0.669100000000     0          
H3       H      0.077200000000     0.486000000000     0.681300000000     0          
C11      C      0.133000000000     0.491000000000     0.707600000000     0          
C12      C      0.187900000000     0.486700000000     0.661400000000     0          
H4       H      0.169400000000     0.488600000000     0.601900000000     0          
H5       H      0.765400000000     0.498600000000     0.623100000000     0          
C13      C      0.799900000000     0.501400000000     0.674600000000     0          
H6       H      0.844700000000     0.499600000000     0.715200000000     0          
H7       H      0.123800000000     0.495900000000     0.734600000000     0          
C14      C      0.173900000000     0.486800000000     0.699700000000     0          
H8       H      0.216300000000     0.485900000000     0.656100000000     0          
C15      C      0.763800000000     0.501000000000     0.701300000000     0          
C16      C      0.202100000000     0.485300000000     0.735700000000     0          
H9       H      0.737100000000     0.501400000000     0.690200000000     0          
N1       N      0.769300000000     0.500200000000     0.739900000000     0          
H10      H      0.191000000000     0.485000000000     0.762500000000     0          
N2       N      0.239200000000     0.484500000000     0.731200000000     0          
O1       O      0.963400000000     0.536600000000     0.536600000000     0          
Zr1      Zr     0.504730000000     0.004650000000     0.575030000000     0          
O2       O      0.463540000000     0.967430000000     0.540980000000     0          
O3       O      0.566260000000     0.004010000000     0.603780000000     0          
O4       O      0.447400000000     0.008790000000     0.611470000000     0          
O5       O      0.503560000000     0.948310000000     0.611750000000     0          
O6       O      0.508690000000     0.065970000000     0.604430000000     0          
C1       C      0.601630000000     0.998200000000     0.589090000000     0          
C2       C      0.411120000000     0.009040000000     0.601560000000     0          
C3       C      0.636100000000     0.999700000000     0.618300000000     0          
C4       C      0.380400000000     0.011600000000     0.635900000000     0          
C5       C      0.676000000000     0.998300000000     0.605000000000     0          
C6       C      0.629700000000     0.002800000000     0.659300000000     0          
C7       C      0.394500000000     0.011900000000     0.675900000000     0          
C8       C      0.340300000000     0.012000000000     0.629100000000     0          
H1       H      0.681700000000     0.996300000000     0.576700000000     0          
C9       C      0.707400000000     0.999700000000     0.632600000000     0          
C10      C      0.661200000000     0.000500000000     0.686900000000     0          
H2       H      0.602700000000     0.006600000000     0.669100000000     0          
H3       H      0.422800000000     0.014000000000     0.681300000000     0          
C11      C      0.367000000000     0.009000000000     0.707600000000     0          
C12      C      0.312100000000     0.013300000000     0.661400000000     0          
H4       H      0.330600000000     0.011400000000     0.601900000000     0          
H5       H      0.734600000000     0.001400000000     0.623100000000     0          
C13      C      0.700100000000     0.998600000000     0.674600000000     0          
H6       H      0.655300000000     0.000400000000     0.715200000000     0          
H7       H      0.376200000000     0.004100000000     0.734600000000     0          
C14      C      0.326100000000     0.013200000000     0.699700000000     0          
H8       H      0.283700000000     0.014100000000     0.656100000000     0          
C15      C      0.736200000000     0.999000000000     0.701300000000     0          
C16      C      0.297900000000     0.014700000000     0.735700000000     0          
H9       H      0.762900000000     0.998600000000     0.690200000000     0          
N1       N      0.730700000000     0.999800000000     0.739900000000     0          
H10      H      0.309000000000     0.015000000000     0.762500000000     0          
N2       N      0.260800000000     0.015500000000     0.731200000000     0          
O1       O      0.536600000000     0.963400000000     0.536600000000     0          
Zr1      Zr     0.924970000000     0.995270000000     0.004650000000     0          
O2       O      0.959020000000     0.036460000000     0.967430000000     0          
O3       O      0.896220000000     0.933740000000     0.004010000000     0          
O4       O      0.888530000000     0.052600000000     0.008790000000     0          
O5       O      0.888250000000     0.996440000000     0.948310000000     0          
O6       O      0.895570000000     0.991310000000     0.065970000000     0          
C1       C      0.910910000000     0.898370000000     0.998200000000     0          
C2       C      0.898440000000     0.088880000000     0.009040000000     0          
C3       C      0.881700000000     0.863900000000     0.999700000000     0          
C4       C      0.864100000000     0.119600000000     0.011600000000     0          
C5       C      0.895000000000     0.824000000000     0.998300000000     0          
C6       C      0.840700000000     0.870300000000     0.002800000000     0          
C7       C      0.824100000000     0.105500000000     0.011900000000     0          
C8       C      0.870900000000     0.159700000000     0.012000000000     0          
H1       H      0.923300000000     0.818300000000     0.996300000000     0          
C9       C      0.867400000000     0.792600000000     0.999700000000     0          
C10      C      0.813100000000     0.838800000000     0.000500000000     0          
H2       H      0.830900000000     0.897300000000     0.006600000000     0          
H3       H      0.818700000000     0.077200000000     0.014000000000     0          
C11      C      0.792400000000     0.133000000000     0.009000000000     0          
C12      C      0.838600000000     0.187900000000     0.013300000000     0          
H4       H      0.898100000000     0.169400000000     0.011400000000     0          
H5       H      0.876900000000     0.765400000000     0.001400000000     0          
C13      C      0.825400000000     0.799900000000     0.998600000000     0          
H6       H      0.784800000000     0.844700000000     0.000400000000     0          
H7       H      0.765400000000     0.123800000000     0.004100000000     0          
C14      C      0.800300000000     0.173900000000     0.013200000000     0          
H8       H      0.843900000000     0.216300000000     0.014100000000     0          
C15      C      0.798700000000     0.763800000000     0.999000000000     0          
C16      C      0.764300000000     0.202100000000     0.014700000000     0          
H9       H      0.809800000000     0.737100000000     0.998600000000     0          
N1       N      0.760100000000     0.769300000000     0.999800000000     0          
H10      H      0.737500000000     0.191000000000     0.015000000000     0          
N2       N      0.768800000000     0.239200000000     0.015500000000     0          
Zr1      Zr     0.575030000000     0.504730000000     0.004650000000     0          
O2       O      0.540980000000     0.463540000000     0.967430000000     0          
O3       O      0.603780000000     0.566260000000     0.004010000000     0          
O4       O      0.611470000000     0.447400000000     0.008790000000     0          
O5       O      0.611750000000     0.503560000000     0.948310000000     0          
O6       O      0.604430000000     0.508690000000     0.065970000000     0          
C1       C      0.589090000000     0.601630000000     0.998200000000     0          
C2       C      0.601560000000     0.411120000000     0.009040000000     0          
C3       C      0.618300000000     0.636100000000     0.999700000000     0          
C4       C      0.635900000000     0.380400000000     0.011600000000     0          
C5       C      0.605000000000     0.676000000000     0.998300000000     0          
C6       C      0.659300000000     0.629700000000     0.002800000000     0          
C7       C      0.675900000000     0.394500000000     0.011900000000     0          
C8       C      0.629100000000     0.340300000000     0.012000000000     0          
H1       H      0.576700000000     0.681700000000     0.996300000000     0          
C9       C      0.632600000000     0.707400000000     0.999700000000     0          
C10      C      0.686900000000     0.661200000000     0.000500000000     0          
H2       H      0.669100000000     0.602700000000     0.006600000000     0          
H3       H      0.681300000000     0.422800000000     0.014000000000     0          
C11      C      0.707600000000     0.367000000000     0.009000000000     0          
C12      C      0.661400000000     0.312100000000     0.013300000000     0          
H4       H      0.601900000000     0.330600000000     0.011400000000     0          
H5       H      0.623100000000     0.734600000000     0.001400000000     0          
C13      C      0.674600000000     0.700100000000     0.998600000000     0          
H6       H      0.715200000000     0.655300000000     0.000400000000     0          
H7       H      0.734600000000     0.376200000000     0.004100000000     0          
C14      C      0.699700000000     0.326100000000     0.013200000000     0          
H8       H      0.656100000000     0.283700000000     0.014100000000     0          
C15      C      0.701300000000     0.736200000000     0.999000000000     0          
C16      C      0.735700000000     0.297900000000     0.014700000000     0          
H9       H      0.690200000000     0.762900000000     0.998600000000     0          
N1       N      0.739900000000     0.730700000000     0.999800000000     0          
H10      H      0.762500000000     0.309000000000     0.015000000000     0          
N2       N      0.731200000000     0.260800000000     0.015500000000     0          
Zr1      Zr     0.924970000000     0.504730000000     0.495350000000     0          
O2       O      0.959020000000     0.463540000000     0.532570000000     0          
O3       O      0.896220000000     0.566260000000     0.495990000000     0          
O4       O      0.888530000000     0.447400000000     0.491210000000     0          
O5       O      0.888250000000     0.503560000000     0.551690000000     0          
O6       O      0.895570000000     0.508690000000     0.434030000000     0          
C1       C      0.910910000000     0.601630000000     0.501800000000     0          
C2       C      0.898440000000     0.411120000000     0.490960000000     0          
C3       C      0.881700000000     0.636100000000     0.500300000000     0          
C4       C      0.864100000000     0.380400000000     0.488400000000     0          
C5       C      0.895000000000     0.676000000000     0.501700000000     0          
C6       C      0.840700000000     0.629700000000     0.497200000000     0          
C7       C      0.824100000000     0.394500000000     0.488100000000     0          
C8       C      0.870900000000     0.340300000000     0.488000000000     0          
H1       H      0.923300000000     0.681700000000     0.503700000000     0          
C9       C      0.867400000000     0.707400000000     0.500300000000     0          
C10      C      0.813100000000     0.661200000000     0.499500000000     0          
H2       H      0.830900000000     0.602700000000     0.493400000000     0          
H3       H      0.818700000000     0.422800000000     0.486000000000     0          
C11      C      0.792400000000     0.367000000000     0.491000000000     0          
C12      C      0.838600000000     0.312100000000     0.486700000000     0          
H4       H      0.898100000000     0.330600000000     0.488600000000     0          
H5       H      0.876900000000     0.734600000000     0.498600000000     0          
C13      C      0.825400000000     0.700100000000     0.501400000000     0          
H6       H      0.784800000000     0.655300000000     0.499600000000     0          
H7       H      0.765400000000     0.376200000000     0.495900000000     0          
C14      C      0.800300000000     0.326100000000     0.486800000000     0          
H8       H      0.843900000000     0.283700000000     0.485900000000     0          
C15      C      0.798700000000     0.736200000000     0.501000000000     0          
C16      C      0.764300000000     0.297900000000     0.485300000000     0          
H9       H      0.809800000000     0.762900000000     0.501400000000     0          
N1       N      0.760100000000     0.730700000000     0.500200000000     0          
H10      H      0.737500000000     0.309000000000     0.485000000000     0          
N2       N      0.768800000000     0.260800000000     0.484500000000     0          
Zr1      Zr     0.575030000000     0.995270000000     0.495350000000     0          
O2       O      0.540980000000     0.036460000000     0.532570000000     0          
O3       O      0.603780000000     0.933740000000     0.495990000000     0          
O4       O      0.611470000000     0.052600000000     0.491210000000     0          
O5       O      0.611750000000     0.996440000000     0.551690000000     0          
O6       O      0.604430000000     0.991310000000     0.434030000000     0          
C1       C      0.589090000000     0.898370000000     0.501800000000     0          
C2       C      0.601560000000     0.088880000000     0.490960000000     0          
C3       C      0.618300000000     0.863900000000     0.500300000000     0          
C4       C      0.635900000000     0.119600000000     0.488400000000     0          
C5       C      0.605000000000     0.824000000000     0.501700000000     0          
C6       C      0.659300000000     0.870300000000     0.497200000000     0          
C7       C      0.675900000000     0.105500000000     0.488100000000     0          
C8       C      0.629100000000     0.159700000000     0.488000000000     0          
H1       H      0.576700000000     0.818300000000     0.503700000000     0          
C9       C      0.632600000000     0.792600000000     0.500300000000     0          
C10      C      0.686900000000     0.838800000000     0.499500000000     0          
H2       H      0.669100000000     0.897300000000     0.493400000000     0          
H3       H      0.681300000000     0.077200000000     0.486000000000     0          
C11      C      0.707600000000     0.133000000000     0.491000000000     0          
C12      C      0.661400000000     0.187900000000     0.486700000000     0          
H4       H      0.601900000000     0.169400000000     0.488600000000     0          
H5       H      0.623100000000     0.765400000000     0.498600000000     0          
C13      C      0.674600000000     0.799900000000     0.501400000000     0          
H6       H      0.715200000000     0.844700000000     0.499600000000     0          
H7       H      0.734600000000     0.123800000000     0.495900000000     0          
C14      C      0.699700000000     0.173900000000     0.486800000000     0          
H8       H      0.656100000000     0.216300000000     0.485900000000     0          
C15      C      0.701300000000     0.763800000000     0.501000000000     0          
C16      C      0.735700000000     0.202100000000     0.485300000000     0          
H9       H      0.690200000000     0.737100000000     0.501400000000     0          
N1       N      0.739900000000     0.769300000000     0.500200000000     0          
H10      H      0.762500000000     0.191000000000     0.485000000000     0          
N2       N      0.731200000000     0.239200000000     0.484500000000     0          
Zr1      Zr     0.004650000000     0.924970000000     0.995270000000     0          
O2       O      0.967430000000     0.959020000000     0.036460000000     0          
O3       O      0.004010000000     0.896220000000     0.933740000000     0          
O4       O      0.008790000000     0.888530000000     0.052600000000     0          
O5       O      0.948310000000     0.888250000000     0.996440000000     0          
O6       O      0.065970000000     0.895570000000     0.991310000000     0          
C1       C      0.998200000000     0.910910000000     0.898370000000     0          
C2       C      0.009040000000     0.898440000000     0.088880000000     0          
C3       C      0.999700000000     0.881700000000     0.863900000000     0          
C4       C      0.011600000000     0.864100000000     0.119600000000     0          
C5       C      0.998300000000     0.895000000000     0.824000000000     0          
C6       C      0.002800000000     0.840700000000     0.870300000000     0          
C7       C      0.011900000000     0.824100000000     0.105500000000     0          
C8       C      0.012000000000     0.870900000000     0.159700000000     0          
H1       H      0.996300000000     0.923300000000     0.818300000000     0          
C9       C      0.999700000000     0.867400000000     0.792600000000     0          
C10      C      0.000500000000     0.813100000000     0.838800000000     0          
H2       H      0.006600000000     0.830900000000     0.897300000000     0          
H3       H      0.014000000000     0.818700000000     0.077200000000     0          
C11      C      0.009000000000     0.792400000000     0.133000000000     0          
C12      C      0.013300000000     0.838600000000     0.187900000000     0          
H4       H      0.011400000000     0.898100000000     0.169400000000     0          
H5       H      0.001400000000     0.876900000000     0.765400000000     0          
C13      C      0.998600000000     0.825400000000     0.799900000000     0          
H6       H      0.000400000000     0.784800000000     0.844700000000     0          
H7       H      0.004100000000     0.765400000000     0.123800000000     0          
C14      C      0.013200000000     0.800300000000     0.173900000000     0          
H8       H      0.014100000000     0.843900000000     0.216300000000     0          
C15      C      0.999000000000     0.798700000000     0.763800000000     0          
C16      C      0.014700000000     0.764300000000     0.202100000000     0          
H9       H      0.998600000000     0.809800000000     0.737100000000     0          
N1       N      0.999800000000     0.760100000000     0.769300000000     0          
H10      H      0.015000000000     0.737500000000     0.191000000000     0          
N2       N      0.015500000000     0.768800000000     0.239200000000     0          
Zr1      Zr     0.004650000000     0.575030000000     0.504730000000     0          
O2       O      0.967430000000     0.540980000000     0.463540000000     0          
O3       O      0.004010000000     0.603780000000     0.566260000000     0          
O4       O      0.008790000000     0.611470000000     0.447400000000     0          
O5       O      0.948310000000     0.611750000000     0.503560000000     0          
O6       O      0.065970000000     0.604430000000     0.508690000000     0          
C1       C      0.998200000000     0.589090000000     0.601630000000     0          
C2       C      0.009040000000     0.601560000000     0.411120000000     0          
C3       C      0.999700000000     0.618300000000     0.636100000000     0          
C4       C      0.011600000000     0.635900000000     0.380400000000     0          
C5       C      0.998300000000     0.605000000000     0.676000000000     0          
C6       C      0.002800000000     0.659300000000     0.629700000000     0          
C7       C      0.011900000000     0.675900000000     0.394500000000     0          
C8       C      0.012000000000     0.629100000000     0.340300000000     0          
H1       H      0.996300000000     0.576700000000     0.681700000000     0          
C9       C      0.999700000000     0.632600000000     0.707400000000     0          
C10      C      0.000500000000     0.686900000000     0.661200000000     0          
H2       H      0.006600000000     0.669100000000     0.602700000000     0          
H3       H      0.014000000000     0.681300000000     0.422800000000     0          
C11      C      0.009000000000     0.707600000000     0.367000000000     0          
C12      C      0.013300000000     0.661400000000     0.312100000000     0          
H4       H      0.011400000000     0.601900000000     0.330600000000     0          
H5       H      0.001400000000     0.623100000000     0.734600000000     0          
C13      C      0.998600000000     0.674600000000     0.700100000000     0          
H6       H      0.000400000000     0.715200000000     0.655300000000     0          
H7       H      0.004100000000     0.734600000000     0.376200000000     0          
C14      C      0.013200000000     0.699700000000     0.326100000000     0          
H8       H      0.014100000000     0.656100000000     0.283700000000     0          
C15      C      0.999000000000     0.701300000000     0.736200000000     0          
C16      C      0.014700000000     0.735700000000     0.297900000000     0          
H9       H      0.998600000000     0.690200000000     0.762900000000     0          
N1       N      0.999800000000     0.739900000000     0.730700000000     0          
H10      H      0.015000000000     0.762500000000     0.309000000000     0          
N2       N      0.015500000000     0.731200000000     0.260800000000     0          
Zr1      Zr     0.495350000000     0.924970000000     0.504730000000     0          
O2       O      0.532570000000     0.959020000000     0.463540000000     0          
O3       O      0.495990000000     0.896220000000     0.566260000000     0          
O4       O      0.491210000000     0.888530000000     0.447400000000     0          
O5       O      0.551690000000     0.888250000000     0.503560000000     0          
O6       O      0.434030000000     0.895570000000     0.508690000000     0          
C1       C      0.501800000000     0.910910000000     0.601630000000     0          
C2       C      0.490960000000     0.898440000000     0.411120000000     0          
C3       C      0.500300000000     0.881700000000     0.636100000000     0          
C4       C      0.488400000000     0.864100000000     0.380400000000     0          
C5       C      0.501700000000     0.895000000000     0.676000000000     0          
C6       C      0.497200000000     0.840700000000     0.629700000000     0          
C7       C      0.488100000000     0.824100000000     0.394500000000     0          
C8       C      0.488000000000     0.870900000000     0.340300000000     0          
H1       H      0.503700000000     0.923300000000     0.681700000000     0          
C9       C      0.500300000000     0.867400000000     0.707400000000     0          
C10      C      0.499500000000     0.813100000000     0.661200000000     0          
H2       H      0.493400000000     0.830900000000     0.602700000000     0          
H3       H      0.486000000000     0.818700000000     0.422800000000     0          
C11      C      0.491000000000     0.792400000000     0.367000000000     0          
C12      C      0.486700000000     0.838600000000     0.312100000000     0          
H4       H      0.488600000000     0.898100000000     0.330600000000     0          
H5       H      0.498600000000     0.876900000000     0.734600000000     0          
C13      C      0.501400000000     0.825400000000     0.700100000000     0          
H6       H      0.499600000000     0.784800000000     0.655300000000     0          
H7       H      0.495900000000     0.765400000000     0.376200000000     0          
C14      C      0.486800000000     0.800300000000     0.326100000000     0          
H8       H      0.485900000000     0.843900000000     0.283700000000     0          
C15      C      0.501000000000     0.798700000000     0.736200000000     0          
C16      C      0.485300000000     0.764300000000     0.297900000000     0          
H9       H      0.501400000000     0.809800000000     0.762900000000     0          
N1       N      0.500200000000     0.760100000000     0.730700000000     0          
H10      H      0.485000000000     0.737500000000     0.309000000000     0          
N2       N      0.484500000000     0.768800000000     0.260800000000     0          
Zr1      Zr     0.495350000000     0.575030000000     0.995270000000     0          
O2       O      0.532570000000     0.540980000000     0.036460000000     0          
O3       O      0.495990000000     0.603780000000     0.933740000000     0          
O4       O      0.491210000000     0.611470000000     0.052600000000     0          
O5       O      0.551690000000     0.611750000000     0.996440000000     0          
O6       O      0.434030000000     0.604430000000     0.991310000000     0          
C1       C      0.501800000000     0.589090000000     0.898370000000     0          
C2       C      0.490960000000     0.601560000000     0.088880000000     0          
C3       C      0.500300000000     0.618300000000     0.863900000000     0          
C4       C      0.488400000000     0.635900000000     0.119600000000     0          
C5       C      0.501700000000     0.605000000000     0.824000000000     0          
C6       C      0.497200000000     0.659300000000     0.870300000000     0          
C7       C      0.488100000000     0.675900000000     0.105500000000     0          
C8       C      0.488000000000     0.629100000000     0.159700000000     0          
H1       H      0.503700000000     0.576700000000     0.818300000000     0          
C9       C      0.500300000000     0.632600000000     0.792600000000     0          
C10      C      0.499500000000     0.686900000000     0.838800000000     0          
H2       H      0.493400000000     0.669100000000     0.897300000000     0          
H3       H      0.486000000000     0.681300000000     0.077200000000     0          
C11      C      0.491000000000     0.707600000000     0.133000000000     0          
C12      C      0.486700000000     0.661400000000     0.187900000000     0          
H4       H      0.488600000000     0.601900000000     0.169400000000     0          
H5       H      0.498600000000     0.623100000000     0.765400000000     0          
C13      C      0.501400000000     0.674600000000     0.799900000000     0          
H6       H      0.499600000000     0.715200000000     0.844700000000     0          
H7       H      0.495900000000     0.734600000000     0.123800000000     0          
C14      C      0.486800000000     0.699700000000     0.173900000000     0          
H8       H      0.485900000000     0.656100000000     0.216300000000     0          
C15      C      0.501000000000     0.701300000000     0.763800000000     0          
C16      C      0.485300000000     0.735700000000     0.202100000000     0          
H9       H      0.501400000000     0.690200000000     0.737100000000     0          
N1       N      0.500200000000     0.739900000000     0.769300000000     0          
H10      H      0.485000000000     0.762500000000     0.191000000000     0          
N2       N      0.484500000000     0.731200000000     0.239200000000     0          


