data_KOPKAE

_audit_creation_method RASPA-1.0
_audit_creation_date 2020-11-2
_audit_author_name 'Rocio Bueno-Perez'

_cell_length_a    38.4025
_cell_length_b    38.4025
_cell_length_c    38.4025
_cell_angle_alpha 90
_cell_angle_beta  90
_cell_angle_gamma 90
_cell_volume      56634.2

_symmetry_cell_setting          cubic
_symmetry_space_group_name_Hall 'P 1'
_symmetry_space_group_name_H-M  'P 1'
_symmetry_Int_Tables_number     1

_symmetry_equiv_pos_as_xyz 'x,y,z'

loop_
_atom_site_label
_atom_site_type_symbol
_atom_site_fract_x
_atom_site_fract_y
_atom_site_fract_z
_atom_site_charge
O3       O      0.217460000000     0.075180000000     0.123800000000     0          
C3       C      0.269900000000     0.026200000000     0.128600000000     0          
H1       H      0.276900000000     0.049900000000     0.130400000000     0          
C4       C      0.293600000000     0.999500000000     0.128800000000     0          
H2       H      0.317500000000     0.004700000000     0.125400000000     0          
Zr1      Zr     0.189150000000     0.125000000000     0.125000000000     0          
O1       O      0.156100000000     0.093900000000     0.093900000000     0          
O2       O      0.157100000000     0.157100000000     0.092900000000     0          
C1       C      0.206100000000     0.043900000000     0.129900000000     0          
C2       C      0.233700000000     0.016300000000     0.125400000000     0          
C5       C      0.284100000000     0.965900000000     0.133600000000     0          
C6       C      0.310700000000     0.939300000000     0.129800000000     0          
H3       H      0.319100000000     0.930900000000     0.108100000000     0          
N1       N      0.320700000000     0.929300000000     0.157000000000     0          
C7       C      0.363900000000     0.886100000000     0.187000000000     0          
H4       H      0.355100000000     0.894900000000     0.208400000000     0          
C8       C      0.352500000000     0.897500000000     0.158400000000     0          
C9       C      0.361820000000     0.888180000000     0.123100000000     0          
H5       H      0.351900000000     0.898100000000     0.102800000000     0          
O3       O      0.924820000000     0.467460000000     0.373800000000     0          
C3       C      0.973800000000     0.519900000000     0.378600000000     0          
H1       H      0.950100000000     0.526900000000     0.380400000000     0          
C4       C      0.000500000000     0.543600000000     0.378800000000     0          
H2       H      0.995300000000     0.567500000000     0.375400000000     0          
Zr1      Zr     0.875000000000     0.439150000000     0.375000000000     0          
O1       O      0.906100000000     0.406100000000     0.343900000000     0          
O2       O      0.842900000000     0.407100000000     0.342900000000     0          
C1       C      0.956100000000     0.456100000000     0.379900000000     0          
C2       C      0.983700000000     0.483700000000     0.375400000000     0          
C5       C      0.034100000000     0.534100000000     0.383600000000     0          
C6       C      0.060700000000     0.560700000000     0.379800000000     0          
H3       H      0.069100000000     0.569100000000     0.358100000000     0          
N1       N      0.070700000000     0.570700000000     0.407000000000     0          
C7       C      0.113900000000     0.613900000000     0.437000000000     0          
H4       H      0.105100000000     0.605100000000     0.458400000000     0          
C8       C      0.102500000000     0.602500000000     0.408400000000     0          
C9       C      0.111820000000     0.611820000000     0.373100000000     0          
H5       H      0.101900000000     0.601900000000     0.352800000000     0          
O3       O      0.532540000000     0.174820000000     0.623800000000     0          
C3       C      0.480100000000     0.223800000000     0.628600000000     0          
H1       H      0.473100000000     0.200100000000     0.630400000000     0          
C4       C      0.456400000000     0.250500000000     0.628800000000     0          
H2       H      0.432500000000     0.245300000000     0.625400000000     0          
Zr1      Zr     0.560850000000     0.125000000000     0.625000000000     0          
O1       O      0.593900000000     0.156100000000     0.593900000000     0          
O2       O      0.592900000000     0.092900000000     0.592900000000     0          
C1       C      0.543900000000     0.206100000000     0.629900000000     0          
C2       C      0.516300000000     0.233700000000     0.625400000000     0          
C5       C      0.465900000000     0.284100000000     0.633600000000     0          
C6       C      0.439300000000     0.310700000000     0.629800000000     0          
H3       H      0.430900000000     0.319100000000     0.608100000000     0          
N1       N      0.429300000000     0.320700000000     0.657000000000     0          
C7       C      0.386100000000     0.363900000000     0.687000000000     0          
H4       H      0.394900000000     0.355100000000     0.708400000000     0          
C8       C      0.397500000000     0.352500000000     0.658400000000     0          
C9       C      0.388180000000     0.361820000000     0.623100000000     0          
H5       H      0.398100000000     0.351900000000     0.602800000000     0          
O3       O      0.825180000000     0.782540000000     0.873800000000     0          
C3       C      0.776200000000     0.730100000000     0.878600000000     0          
H1       H      0.799900000000     0.723100000000     0.880400000000     0          
C4       C      0.749500000000     0.706400000000     0.878800000000     0          
H2       H      0.754700000000     0.682500000000     0.875400000000     0          
Zr1      Zr     0.875000000000     0.810850000000     0.875000000000     0          
O1       O      0.843900000000     0.843900000000     0.843900000000     0          
O2       O      0.907100000000     0.842900000000     0.842900000000     0          
C1       C      0.793900000000     0.793900000000     0.879900000000     0          
C2       C      0.766300000000     0.766300000000     0.875400000000     0          
C5       C      0.715900000000     0.715900000000     0.883600000000     0          
C6       C      0.689300000000     0.689300000000     0.879800000000     0          
H3       H      0.680900000000     0.680900000000     0.858100000000     0          
N1       N      0.679300000000     0.679300000000     0.907000000000     0          
C7       C      0.636100000000     0.636100000000     0.937000000000     0          
H4       H      0.644900000000     0.644900000000     0.958400000000     0          
C8       C      0.647500000000     0.647500000000     0.908400000000     0          
C9       C      0.638180000000     0.638180000000     0.873100000000     0          
H5       H      0.648100000000     0.648100000000     0.852800000000     0          
O3       O      0.217460000000     0.174820000000     0.126200000000     0          
C3       C      0.269900000000     0.223800000000     0.121400000000     0          
H1       H      0.276900000000     0.200100000000     0.119600000000     0          
C4       C      0.293600000000     0.250500000000     0.121200000000     0          
H2       H      0.317500000000     0.245300000000     0.124600000000     0          
O1       O      0.156100000000     0.156100000000     0.156100000000     0          
O2       O      0.157100000000     0.092900000000     0.157100000000     0          
C1       C      0.206100000000     0.206100000000     0.120100000000     0          
C2       C      0.233700000000     0.233700000000     0.124600000000     0          
C5       C      0.284100000000     0.284100000000     0.116400000000     0          
C6       C      0.310700000000     0.310700000000     0.120200000000     0          
H3       H      0.319100000000     0.319100000000     0.141900000000     0          
N1       N      0.320700000000     0.320700000000     0.093000000000     0          
C7       C      0.363900000000     0.363900000000     0.063000000000     0          
H4       H      0.355100000000     0.355100000000     0.041600000000     0          
C8       C      0.352500000000     0.352500000000     0.091600000000     0          
C9       C      0.361820000000     0.361820000000     0.126900000000     0          
H5       H      0.351900000000     0.351900000000     0.147200000000     0          
O3       O      0.825180000000     0.467460000000     0.376200000000     0          
C3       C      0.776200000000     0.519900000000     0.371400000000     0          
H1       H      0.799900000000     0.526900000000     0.369600000000     0          
C4       C      0.749500000000     0.543600000000     0.371200000000     0          
H2       H      0.754700000000     0.567500000000     0.374600000000     0          
O1       O      0.843900000000     0.406100000000     0.406100000000     0          
O2       O      0.907100000000     0.407100000000     0.407100000000     0          
C1       C      0.793900000000     0.456100000000     0.370100000000     0          
C2       C      0.766300000000     0.483700000000     0.374600000000     0          
C5       C      0.715900000000     0.534100000000     0.366400000000     0          
C6       C      0.689300000000     0.560700000000     0.370200000000     0          
H3       H      0.680900000000     0.569100000000     0.391900000000     0          
N1       N      0.679300000000     0.570700000000     0.343000000000     0          
C7       C      0.636100000000     0.613900000000     0.313000000000     0          
H4       H      0.644900000000     0.605100000000     0.291600000000     0          
C8       C      0.647500000000     0.602500000000     0.341600000000     0          
C9       C      0.638180000000     0.611820000000     0.376900000000     0          
H5       H      0.648100000000     0.601900000000     0.397200000000     0          
O3       O      0.532540000000     0.075180000000     0.626200000000     0          
C3       C      0.480100000000     0.026200000000     0.621400000000     0          
H1       H      0.473100000000     0.049900000000     0.619600000000     0          
C4       C      0.456400000000     0.999500000000     0.621200000000     0          
H2       H      0.432500000000     0.004700000000     0.624600000000     0          
O1       O      0.593900000000     0.093900000000     0.656100000000     0          
O2       O      0.592900000000     0.157100000000     0.657100000000     0          
C1       C      0.543900000000     0.043900000000     0.620100000000     0          
C2       C      0.516300000000     0.016300000000     0.624600000000     0          
C5       C      0.465900000000     0.965900000000     0.616400000000     0          
C6       C      0.439300000000     0.939300000000     0.620200000000     0          
H3       H      0.430900000000     0.930900000000     0.641900000000     0          
N1       N      0.429300000000     0.929300000000     0.593000000000     0          
C7       C      0.386100000000     0.886100000000     0.563000000000     0          
H4       H      0.394900000000     0.894900000000     0.541600000000     0          
C8       C      0.397500000000     0.897500000000     0.591600000000     0          
C9       C      0.388180000000     0.888180000000     0.626900000000     0          
H5       H      0.398100000000     0.898100000000     0.647200000000     0          
O3       O      0.924820000000     0.782540000000     0.876200000000     0          
C3       C      0.973800000000     0.730100000000     0.871400000000     0          
H1       H      0.950100000000     0.723100000000     0.869600000000     0          
C4       C      0.000500000000     0.706400000000     0.871200000000     0          
H2       H      0.995300000000     0.682500000000     0.874600000000     0          
O1       O      0.906100000000     0.843900000000     0.906100000000     0          
O2       O      0.842900000000     0.842900000000     0.907100000000     0          
C1       C      0.956100000000     0.793900000000     0.870100000000     0          
C2       C      0.983700000000     0.766300000000     0.874600000000     0          
C5       C      0.034100000000     0.715900000000     0.866400000000     0          
C6       C      0.060700000000     0.689300000000     0.870200000000     0          
H3       H      0.069100000000     0.680900000000     0.891900000000     0          
N1       N      0.070700000000     0.679300000000     0.843000000000     0          
C7       C      0.113900000000     0.636100000000     0.813000000000     0          
H4       H      0.105100000000     0.644900000000     0.791600000000     0          
C8       C      0.102500000000     0.647500000000     0.841600000000     0          
C9       C      0.111820000000     0.638180000000     0.876900000000     0          
H5       H      0.101900000000     0.648100000000     0.897200000000     0          
O3       O      0.123800000000     0.217460000000     0.075180000000     0          
C3       C      0.128600000000     0.269900000000     0.026200000000     0          
H1       H      0.130400000000     0.276900000000     0.049900000000     0          
C4       C      0.128800000000     0.293600000000     0.999500000000     0          
H2       H      0.125400000000     0.317500000000     0.004700000000     0          
Zr1      Zr     0.125000000000     0.189150000000     0.125000000000     0          
O1       O      0.093900000000     0.156100000000     0.093900000000     0          
O2       O      0.092900000000     0.157100000000     0.157100000000     0          
C1       C      0.129900000000     0.206100000000     0.043900000000     0          
C2       C      0.125400000000     0.233700000000     0.016300000000     0          
C5       C      0.133600000000     0.284100000000     0.965900000000     0          
C6       C      0.129800000000     0.310700000000     0.939300000000     0          
H3       H      0.108100000000     0.319100000000     0.930900000000     0          
N1       N      0.157000000000     0.320700000000     0.929300000000     0          
C7       C      0.187000000000     0.363900000000     0.886100000000     0          
H4       H      0.208400000000     0.355100000000     0.894900000000     0          
C8       C      0.158400000000     0.352500000000     0.897500000000     0          
C9       C      0.123100000000     0.361820000000     0.888180000000     0          
H5       H      0.102800000000     0.351900000000     0.898100000000     0          
O3       O      0.782540000000     0.373800000000     0.325180000000     0          
C3       C      0.730100000000     0.378600000000     0.276200000000     0          
H1       H      0.723100000000     0.380400000000     0.299900000000     0          
C4       C      0.706400000000     0.378800000000     0.249500000000     0          
H2       H      0.682500000000     0.375400000000     0.254700000000     0          
Zr1      Zr     0.810850000000     0.375000000000     0.375000000000     0          
O1       O      0.843900000000     0.343900000000     0.343900000000     0          
O2       O      0.842900000000     0.342900000000     0.407100000000     0          
C1       C      0.793900000000     0.379900000000     0.293900000000     0          
C2       C      0.766300000000     0.375400000000     0.266300000000     0          
C5       C      0.715900000000     0.383600000000     0.215900000000     0          
C6       C      0.689300000000     0.379800000000     0.189300000000     0          
H3       H      0.680900000000     0.358100000000     0.180900000000     0          
N1       N      0.679300000000     0.407000000000     0.179300000000     0          
C7       C      0.636100000000     0.437000000000     0.136100000000     0          
H4       H      0.644900000000     0.458400000000     0.144900000000     0          
C8       C      0.647500000000     0.408400000000     0.147500000000     0          
C9       C      0.638180000000     0.373100000000     0.138180000000     0          
H5       H      0.648100000000     0.352800000000     0.148100000000     0          
O3       O      0.626200000000     0.032540000000     0.575180000000     0          
C3       C      0.621400000000     0.980100000000     0.526200000000     0          
H1       H      0.619600000000     0.973100000000     0.549900000000     0          
C4       C      0.621200000000     0.956400000000     0.499500000000     0          
H2       H      0.624600000000     0.932500000000     0.504700000000     0          
Zr1      Zr     0.625000000000     0.060850000000     0.625000000000     0          
O1       O      0.656100000000     0.093900000000     0.593900000000     0          
O2       O      0.657100000000     0.092900000000     0.657100000000     0          
C1       C      0.620100000000     0.043900000000     0.543900000000     0          
C2       C      0.624600000000     0.016300000000     0.516300000000     0          
C5       C      0.616400000000     0.965900000000     0.465900000000     0          
C6       C      0.620200000000     0.939300000000     0.439300000000     0          
H3       H      0.641900000000     0.930900000000     0.430900000000     0          
N1       N      0.593000000000     0.929300000000     0.429300000000     0          
C7       C      0.563000000000     0.886100000000     0.386100000000     0          
H4       H      0.541600000000     0.894900000000     0.394900000000     0          
C8       C      0.591600000000     0.897500000000     0.397500000000     0          
C9       C      0.626900000000     0.888180000000     0.388180000000     0          
H5       H      0.647200000000     0.898100000000     0.398100000000     0          
O3       O      0.967460000000     0.876200000000     0.825180000000     0          
C3       C      0.019900000000     0.871400000000     0.776200000000     0          
H1       H      0.026900000000     0.869600000000     0.799900000000     0          
C4       C      0.043600000000     0.871200000000     0.749500000000     0          
H2       H      0.067500000000     0.874600000000     0.754700000000     0          
Zr1      Zr     0.939150000000     0.875000000000     0.875000000000     0          
O1       O      0.906100000000     0.906100000000     0.843900000000     0          
O2       O      0.907100000000     0.907100000000     0.907100000000     0          
C1       C      0.956100000000     0.870100000000     0.793900000000     0          
C2       C      0.983700000000     0.874600000000     0.766300000000     0          
C5       C      0.034100000000     0.866400000000     0.715900000000     0          
C6       C      0.060700000000     0.870200000000     0.689300000000     0          
H3       H      0.069100000000     0.891900000000     0.680900000000     0          
N1       N      0.070700000000     0.843000000000     0.679300000000     0          
C7       C      0.113900000000     0.813000000000     0.636100000000     0          
H4       H      0.105100000000     0.791600000000     0.644900000000     0          
C8       C      0.102500000000     0.841600000000     0.647500000000     0          
C9       C      0.111820000000     0.876900000000     0.638180000000     0          
H5       H      0.101900000000     0.897200000000     0.648100000000     0          
O3       O      0.123800000000     0.032540000000     0.174820000000     0          
C3       C      0.128600000000     0.980100000000     0.223800000000     0          
H1       H      0.130400000000     0.973100000000     0.200100000000     0          
C4       C      0.128800000000     0.956400000000     0.250500000000     0          
H2       H      0.125400000000     0.932500000000     0.245300000000     0          
Zr1      Zr     0.125000000000     0.060850000000     0.125000000000     0          
O1       O      0.093900000000     0.093900000000     0.156100000000     0          
O2       O      0.092900000000     0.092900000000     0.092900000000     0          
C1       C      0.129900000000     0.043900000000     0.206100000000     0          
C2       C      0.125400000000     0.016300000000     0.233700000000     0          
C5       C      0.133600000000     0.965900000000     0.284100000000     0          
C6       C      0.129800000000     0.939300000000     0.310700000000     0          
H3       H      0.108100000000     0.930900000000     0.319100000000     0          
N1       N      0.157000000000     0.929300000000     0.320700000000     0          
C7       C      0.187000000000     0.886100000000     0.363900000000     0          
H4       H      0.208400000000     0.894900000000     0.355100000000     0          
C8       C      0.158400000000     0.897500000000     0.352500000000     0          
C9       C      0.123100000000     0.888180000000     0.361820000000     0          
H5       H      0.102800000000     0.898100000000     0.351900000000     0          
O3       O      0.967460000000     0.373800000000     0.424820000000     0          
C3       C      0.019900000000     0.378600000000     0.473800000000     0          
H1       H      0.026900000000     0.380400000000     0.450100000000     0          
C4       C      0.043600000000     0.378800000000     0.500500000000     0          
H2       H      0.067500000000     0.375400000000     0.495300000000     0          
Zr1      Zr     0.939150000000     0.375000000000     0.375000000000     0          
O1       O      0.906100000000     0.343900000000     0.406100000000     0          
O2       O      0.907100000000     0.342900000000     0.342900000000     0          
C1       C      0.956100000000     0.379900000000     0.456100000000     0          
C2       C      0.983700000000     0.375400000000     0.483700000000     0          
C5       C      0.034100000000     0.383600000000     0.534100000000     0          
C6       C      0.060700000000     0.379800000000     0.560700000000     0          
H3       H      0.069100000000     0.358100000000     0.569100000000     0          
N1       N      0.070700000000     0.407000000000     0.570700000000     0          
C7       C      0.113900000000     0.437000000000     0.613900000000     0          
H4       H      0.105100000000     0.458400000000     0.605100000000     0          
C8       C      0.102500000000     0.408400000000     0.602500000000     0          
C9       C      0.111820000000     0.373100000000     0.611820000000     0          
H5       H      0.101900000000     0.352800000000     0.601900000000     0          
O3       O      0.626200000000     0.217460000000     0.674820000000     0          
C3       C      0.621400000000     0.269900000000     0.723800000000     0          
H1       H      0.619600000000     0.276900000000     0.700100000000     0          
C4       C      0.621200000000     0.293600000000     0.750500000000     0          
H2       H      0.624600000000     0.317500000000     0.745300000000     0          
Zr1      Zr     0.625000000000     0.189150000000     0.625000000000     0          
O1       O      0.656100000000     0.156100000000     0.656100000000     0          
O2       O      0.657100000000     0.157100000000     0.592900000000     0          
C1       C      0.620100000000     0.206100000000     0.706100000000     0          
C2       C      0.624600000000     0.233700000000     0.733700000000     0          
C5       C      0.616400000000     0.284100000000     0.784100000000     0          
C6       C      0.620200000000     0.310700000000     0.810700000000     0          
H3       H      0.641900000000     0.319100000000     0.819100000000     0          
N1       N      0.593000000000     0.320700000000     0.820700000000     0          
C7       C      0.563000000000     0.363900000000     0.863900000000     0          
H4       H      0.541600000000     0.355100000000     0.855100000000     0          
C8       C      0.591600000000     0.352500000000     0.852500000000     0          
C9       C      0.626900000000     0.361820000000     0.861820000000     0          
H5       H      0.647200000000     0.351900000000     0.851900000000     0          
O3       O      0.782540000000     0.876200000000     0.924820000000     0          
C3       C      0.730100000000     0.871400000000     0.973800000000     0          
H1       H      0.723100000000     0.869600000000     0.950100000000     0          
C4       C      0.706400000000     0.871200000000     0.000500000000     0          
H2       H      0.682500000000     0.874600000000     0.995300000000     0          
Zr1      Zr     0.810850000000     0.875000000000     0.875000000000     0          
O1       O      0.843900000000     0.906100000000     0.906100000000     0          
O2       O      0.842900000000     0.907100000000     0.842900000000     0          
C1       C      0.793900000000     0.870100000000     0.956100000000     0          
C2       C      0.766300000000     0.874600000000     0.983700000000     0          
C5       C      0.715900000000     0.866400000000     0.034100000000     0          
C6       C      0.689300000000     0.870200000000     0.060700000000     0          
H3       H      0.680900000000     0.891900000000     0.069100000000     0          
N1       N      0.679300000000     0.843000000000     0.070700000000     0          
C7       C      0.636100000000     0.813000000000     0.113900000000     0          
H4       H      0.644900000000     0.791600000000     0.105100000000     0          
C8       C      0.647500000000     0.841600000000     0.102500000000     0          
C9       C      0.638180000000     0.876900000000     0.111820000000     0          
H5       H      0.648100000000     0.897200000000     0.101900000000     0          
O3       O      0.075180000000     0.123800000000     0.217460000000     0          
C3       C      0.026200000000     0.128600000000     0.269900000000     0          
H1       H      0.049900000000     0.130400000000     0.276900000000     0          
C4       C      0.999500000000     0.128800000000     0.293600000000     0          
H2       H      0.004700000000     0.125400000000     0.317500000000     0          
Zr1      Zr     0.125000000000     0.125000000000     0.189150000000     0          
C1       C      0.043900000000     0.129900000000     0.206100000000     0          
C2       C      0.016300000000     0.125400000000     0.233700000000     0          
C5       C      0.965900000000     0.133600000000     0.284100000000     0          
C6       C      0.939300000000     0.129800000000     0.310700000000     0          
H3       H      0.930900000000     0.108100000000     0.319100000000     0          
N1       N      0.929300000000     0.157000000000     0.320700000000     0          
C7       C      0.886100000000     0.187000000000     0.363900000000     0          
H4       H      0.894900000000     0.208400000000     0.355100000000     0          
C8       C      0.897500000000     0.158400000000     0.352500000000     0          
C9       C      0.888180000000     0.123100000000     0.361820000000     0          
H5       H      0.898100000000     0.102800000000     0.351900000000     0          
O3       O      0.575180000000     0.626200000000     0.032540000000     0          
C3       C      0.526200000000     0.621400000000     0.980100000000     0          
H1       H      0.549900000000     0.619600000000     0.973100000000     0          
C4       C      0.499500000000     0.621200000000     0.956400000000     0          
H2       H      0.504700000000     0.624600000000     0.932500000000     0          
Zr1      Zr     0.625000000000     0.625000000000     0.060850000000     0          
O1       O      0.593900000000     0.656100000000     0.093900000000     0          
O2       O      0.657100000000     0.657100000000     0.092900000000     0          
C1       C      0.543900000000     0.620100000000     0.043900000000     0          
C2       C      0.516300000000     0.624600000000     0.016300000000     0          
C5       C      0.465900000000     0.616400000000     0.965900000000     0          
C6       C      0.439300000000     0.620200000000     0.939300000000     0          
H3       H      0.430900000000     0.641900000000     0.930900000000     0          
N1       N      0.429300000000     0.593000000000     0.929300000000     0          
C7       C      0.386100000000     0.563000000000     0.886100000000     0          
H4       H      0.394900000000     0.541600000000     0.894900000000     0          
C8       C      0.397500000000     0.591600000000     0.897500000000     0          
C9       C      0.388180000000     0.626900000000     0.888180000000     0          
H5       H      0.398100000000     0.647200000000     0.898100000000     0          
O3       O      0.373800000000     0.825180000000     0.282540000000     0          
C3       C      0.378600000000     0.776200000000     0.230100000000     0          
H1       H      0.380400000000     0.799900000000     0.223100000000     0          
C4       C      0.378800000000     0.749500000000     0.206400000000     0          
H2       H      0.375400000000     0.754700000000     0.182500000000     0          
Zr1      Zr     0.375000000000     0.875000000000     0.310850000000     0          
O1       O      0.343900000000     0.843900000000     0.343900000000     0          
O2       O      0.342900000000     0.907100000000     0.342900000000     0          
C1       C      0.379900000000     0.793900000000     0.293900000000     0          
C2       C      0.375400000000     0.766300000000     0.266300000000     0          
C5       C      0.383600000000     0.715900000000     0.215900000000     0          
C6       C      0.379800000000     0.689300000000     0.189300000000     0          
H3       H      0.358100000000     0.680900000000     0.180900000000     0          
N1       N      0.407000000000     0.679300000000     0.179300000000     0          
C7       C      0.437000000000     0.636100000000     0.136100000000     0          
H4       H      0.458400000000     0.644900000000     0.144900000000     0          
C8       C      0.408400000000     0.647500000000     0.147500000000     0          
C9       C      0.373100000000     0.638180000000     0.138180000000     0          
H5       H      0.352800000000     0.648100000000     0.148100000000     0          
O3       O      0.174820000000     0.623800000000     0.532540000000     0          
C3       C      0.223800000000     0.628600000000     0.480100000000     0          
H1       H      0.200100000000     0.630400000000     0.473100000000     0          
C4       C      0.250500000000     0.628800000000     0.456400000000     0          
H2       H      0.245300000000     0.625400000000     0.432500000000     0          
Zr1      Zr     0.125000000000     0.625000000000     0.560850000000     0          
O1       O      0.156100000000     0.593900000000     0.593900000000     0          
O2       O      0.092900000000     0.592900000000     0.592900000000     0          
C1       C      0.206100000000     0.629900000000     0.543900000000     0          
C2       C      0.233700000000     0.625400000000     0.516300000000     0          
C5       C      0.284100000000     0.633600000000     0.465900000000     0          
C6       C      0.310700000000     0.629800000000     0.439300000000     0          
H3       H      0.319100000000     0.608100000000     0.430900000000     0          
N1       N      0.320700000000     0.657000000000     0.429300000000     0          
C7       C      0.363900000000     0.687000000000     0.386100000000     0          
H4       H      0.355100000000     0.708400000000     0.394900000000     0          
C8       C      0.352500000000     0.658400000000     0.397500000000     0          
C9       C      0.361820000000     0.623100000000     0.388180000000     0          
H5       H      0.351900000000     0.602800000000     0.398100000000     0          
O3       O      0.876200000000     0.424820000000     0.282540000000     0          
C3       C      0.871400000000     0.473800000000     0.230100000000     0          
H1       H      0.869600000000     0.450100000000     0.223100000000     0          
C4       C      0.871200000000     0.500500000000     0.206400000000     0          
H2       H      0.874600000000     0.495300000000     0.182500000000     0          
Zr1      Zr     0.875000000000     0.375000000000     0.310850000000     0          
C1       C      0.870100000000     0.456100000000     0.293900000000     0          
C2       C      0.874600000000     0.483700000000     0.266300000000     0          
C5       C      0.866400000000     0.534100000000     0.215900000000     0          
C6       C      0.870200000000     0.560700000000     0.189300000000     0          
H3       H      0.891900000000     0.569100000000     0.180900000000     0          
N1       N      0.843000000000     0.570700000000     0.179300000000     0          
C7       C      0.813000000000     0.613900000000     0.136100000000     0          
H4       H      0.791600000000     0.605100000000     0.144900000000     0          
C8       C      0.841600000000     0.602500000000     0.147500000000     0          
C9       C      0.876900000000     0.611820000000     0.138180000000     0          
H5       H      0.897200000000     0.601900000000     0.148100000000     0          
O3       O      0.174820000000     0.126200000000     0.217460000000     0          
C3       C      0.223800000000     0.121400000000     0.269900000000     0          
H1       H      0.200100000000     0.119600000000     0.276900000000     0          
C4       C      0.250500000000     0.121200000000     0.293600000000     0          
H2       H      0.245300000000     0.124600000000     0.317500000000     0          
C1       C      0.206100000000     0.120100000000     0.206100000000     0          
C2       C      0.233700000000     0.124600000000     0.233700000000     0          
C5       C      0.284100000000     0.116400000000     0.284100000000     0          
C6       C      0.310700000000     0.120200000000     0.310700000000     0          
H3       H      0.319100000000     0.141900000000     0.319100000000     0          
N1       N      0.320700000000     0.093000000000     0.320700000000     0          
C7       C      0.363900000000     0.063000000000     0.363900000000     0          
H4       H      0.355100000000     0.041600000000     0.355100000000     0          
C8       C      0.352500000000     0.091600000000     0.352500000000     0          
C9       C      0.361820000000     0.126900000000     0.361820000000     0          
H5       H      0.351900000000     0.147200000000     0.351900000000     0          
O3       O      0.373800000000     0.924820000000     0.467460000000     0          
C3       C      0.378600000000     0.973800000000     0.519900000000     0          
H1       H      0.380400000000     0.950100000000     0.526900000000     0          
C4       C      0.378800000000     0.000500000000     0.543600000000     0          
H2       H      0.375400000000     0.995300000000     0.567500000000     0          
Zr1      Zr     0.375000000000     0.875000000000     0.439150000000     0          
O1       O      0.343900000000     0.906100000000     0.406100000000     0          
O2       O      0.342900000000     0.842900000000     0.407100000000     0          
C1       C      0.379900000000     0.956100000000     0.456100000000     0          
C2       C      0.375400000000     0.983700000000     0.483700000000     0          
C5       C      0.383600000000     0.034100000000     0.534100000000     0          
C6       C      0.379800000000     0.060700000000     0.560700000000     0          
H3       H      0.358100000000     0.069100000000     0.569100000000     0          
N1       N      0.407000000000     0.070700000000     0.570700000000     0          
C7       C      0.437000000000     0.113900000000     0.613900000000     0          
H4       H      0.458400000000     0.105100000000     0.605100000000     0          
C8       C      0.408400000000     0.102500000000     0.602500000000     0          
C9       C      0.373100000000     0.111820000000     0.611820000000     0          
H5       H      0.352800000000     0.101900000000     0.601900000000     0          
O3       O      0.376200000000     0.325180000000     0.967460000000     0          
C3       C      0.371400000000     0.276200000000     0.019900000000     0          
H1       H      0.369600000000     0.299900000000     0.026900000000     0          
C4       C      0.371200000000     0.249500000000     0.043600000000     0          
H2       H      0.374600000000     0.254700000000     0.067500000000     0          
Zr1      Zr     0.375000000000     0.375000000000     0.939150000000     0          
O1       O      0.406100000000     0.343900000000     0.906100000000     0          
O2       O      0.407100000000     0.407100000000     0.907100000000     0          
C1       C      0.370100000000     0.293900000000     0.956100000000     0          
C2       C      0.374600000000     0.266300000000     0.983700000000     0          
C5       C      0.366400000000     0.215900000000     0.034100000000     0          
C6       C      0.370200000000     0.189300000000     0.060700000000     0          
H3       H      0.391900000000     0.180900000000     0.069100000000     0          
N1       N      0.343000000000     0.179300000000     0.070700000000     0          
C7       C      0.313000000000     0.136100000000     0.113900000000     0          
H4       H      0.291600000000     0.144900000000     0.105100000000     0          
C8       C      0.341600000000     0.147500000000     0.102500000000     0          
C9       C      0.376900000000     0.138180000000     0.111820000000     0          
H5       H      0.397200000000     0.148100000000     0.101900000000     0          
O3       O      0.782540000000     0.924820000000     0.876200000000     0          
C3       C      0.730100000000     0.973800000000     0.871400000000     0          
H1       H      0.723100000000     0.950100000000     0.869600000000     0          
C4       C      0.706400000000     0.000500000000     0.871200000000     0          
H2       H      0.682500000000     0.995300000000     0.874600000000     0          
C1       C      0.793900000000     0.956100000000     0.870100000000     0          
C2       C      0.766300000000     0.983700000000     0.874600000000     0          
C5       C      0.715900000000     0.034100000000     0.866400000000     0          
C6       C      0.689300000000     0.060700000000     0.870200000000     0          
H3       H      0.680900000000     0.069100000000     0.891900000000     0          
N1       N      0.679300000000     0.070700000000     0.843000000000     0          
C7       C      0.636100000000     0.113900000000     0.813000000000     0          
H4       H      0.644900000000     0.105100000000     0.791600000000     0          
C8       C      0.647500000000     0.102500000000     0.841600000000     0          
C9       C      0.638180000000     0.111820000000     0.876900000000     0          
H5       H      0.648100000000     0.101900000000     0.897200000000     0          
O3       O      0.075180000000     0.532540000000     0.626200000000     0          
C3       C      0.026200000000     0.480100000000     0.621400000000     0          
H1       H      0.049900000000     0.473100000000     0.619600000000     0          
C4       C      0.999500000000     0.456400000000     0.621200000000     0          
H2       H      0.004700000000     0.432500000000     0.624600000000     0          
Zr1      Zr     0.125000000000     0.560850000000     0.625000000000     0          
O1       O      0.093900000000     0.593900000000     0.656100000000     0          
O2       O      0.157100000000     0.592900000000     0.657100000000     0          
C1       C      0.043900000000     0.543900000000     0.620100000000     0          
C2       C      0.016300000000     0.516300000000     0.624600000000     0          
C5       C      0.965900000000     0.465900000000     0.616400000000     0          
C6       C      0.939300000000     0.439300000000     0.620200000000     0          
H3       H      0.930900000000     0.430900000000     0.641900000000     0          
N1       N      0.929300000000     0.429300000000     0.593000000000     0          
C7       C      0.886100000000     0.386100000000     0.563000000000     0          
H4       H      0.894900000000     0.394900000000     0.541600000000     0          
C8       C      0.897500000000     0.397500000000     0.591600000000     0          
C9       C      0.888180000000     0.388180000000     0.626900000000     0          
H5       H      0.898100000000     0.398100000000     0.647200000000     0          
O3       O      0.467460000000     0.825180000000     0.376200000000     0          
C3       C      0.519900000000     0.776200000000     0.371400000000     0          
H1       H      0.526900000000     0.799900000000     0.369600000000     0          
C4       C      0.543600000000     0.749500000000     0.371200000000     0          
H2       H      0.567500000000     0.754700000000     0.374600000000     0          
Zr1      Zr     0.439150000000     0.875000000000     0.375000000000     0          
O1       O      0.406100000000     0.843900000000     0.406100000000     0          
O2       O      0.407100000000     0.907100000000     0.407100000000     0          
C1       C      0.456100000000     0.793900000000     0.370100000000     0          
C2       C      0.483700000000     0.766300000000     0.374600000000     0          
C5       C      0.534100000000     0.715900000000     0.366400000000     0          
C6       C      0.560700000000     0.689300000000     0.370200000000     0          
H3       H      0.569100000000     0.680900000000     0.391900000000     0          
N1       N      0.570700000000     0.679300000000     0.343000000000     0          
C7       C      0.613900000000     0.636100000000     0.313000000000     0          
H4       H      0.605100000000     0.644900000000     0.291600000000     0          
C8       C      0.602500000000     0.647500000000     0.341600000000     0          
C9       C      0.611820000000     0.638180000000     0.376900000000     0          
H5       H      0.601900000000     0.648100000000     0.397200000000     0          
O3       O      0.174820000000     0.217460000000     0.126200000000     0          
C3       C      0.223800000000     0.269900000000     0.121400000000     0          
H1       H      0.200100000000     0.276900000000     0.119600000000     0          
C4       C      0.250500000000     0.293600000000     0.121200000000     0          
H2       H      0.245300000000     0.317500000000     0.124600000000     0          
O3       O      0.782540000000     0.825180000000     0.873800000000     0          
C3       C      0.730100000000     0.776200000000     0.878600000000     0          
H1       H      0.723100000000     0.799900000000     0.880400000000     0          
C4       C      0.706400000000     0.749500000000     0.878800000000     0          
H2       H      0.682500000000     0.754700000000     0.875400000000     0          
O3       O      0.174820000000     0.532540000000     0.623800000000     0          
C3       C      0.223800000000     0.480100000000     0.628600000000     0          
H1       H      0.200100000000     0.473100000000     0.630400000000     0          
C4       C      0.250500000000     0.456400000000     0.628800000000     0          
H2       H      0.245300000000     0.432500000000     0.625400000000     0          
C1       C      0.206100000000     0.543900000000     0.629900000000     0          
C2       C      0.233700000000     0.516300000000     0.625400000000     0          
C5       C      0.284100000000     0.465900000000     0.633600000000     0          
C6       C      0.310700000000     0.439300000000     0.629800000000     0          
H3       H      0.319100000000     0.430900000000     0.608100000000     0          
N1       N      0.320700000000     0.429300000000     0.657000000000     0          
C7       C      0.363900000000     0.386100000000     0.687000000000     0          
H4       H      0.355100000000     0.394900000000     0.708400000000     0          
C8       C      0.352500000000     0.397500000000     0.658400000000     0          
C9       C      0.361820000000     0.388180000000     0.623100000000     0          
H5       H      0.351900000000     0.398100000000     0.602800000000     0          
O3       O      0.467460000000     0.924820000000     0.373800000000     0          
C3       C      0.519900000000     0.973800000000     0.378600000000     0          
H1       H      0.526900000000     0.950100000000     0.380400000000     0          
C4       C      0.543600000000     0.000500000000     0.378800000000     0          
H2       H      0.567500000000     0.995300000000     0.375400000000     0          
O1       O      0.406100000000     0.906100000000     0.343900000000     0          
O2       O      0.407100000000     0.842900000000     0.342900000000     0          
C1       C      0.456100000000     0.956100000000     0.379900000000     0          
C2       C      0.483700000000     0.983700000000     0.375400000000     0          
C5       C      0.534100000000     0.034100000000     0.383600000000     0          
C6       C      0.560700000000     0.060700000000     0.379800000000     0          
H3       H      0.569100000000     0.069100000000     0.358100000000     0          
N1       N      0.570700000000     0.070700000000     0.407000000000     0          
C7       C      0.613900000000     0.113900000000     0.437000000000     0          
H4       H      0.605100000000     0.105100000000     0.458400000000     0          
C8       C      0.602500000000     0.102500000000     0.408400000000     0          
C9       C      0.611820000000     0.111820000000     0.373100000000     0          
H5       H      0.601900000000     0.101900000000     0.352800000000     0          
O3       O      0.075180000000     0.217460000000     0.123800000000     0          
C3       C      0.026200000000     0.269900000000     0.128600000000     0          
H1       H      0.049900000000     0.276900000000     0.130400000000     0          
C4       C      0.999500000000     0.293600000000     0.128800000000     0          
H2       H      0.004700000000     0.317500000000     0.125400000000     0          
C1       C      0.043900000000     0.206100000000     0.129900000000     0          
C2       C      0.016300000000     0.233700000000     0.125400000000     0          
C5       C      0.965900000000     0.284100000000     0.133600000000     0          
C6       C      0.939300000000     0.310700000000     0.129800000000     0          
H3       H      0.930900000000     0.319100000000     0.108100000000     0          
N1       N      0.929300000000     0.320700000000     0.157000000000     0          
C7       C      0.886100000000     0.363900000000     0.187000000000     0          
H4       H      0.894900000000     0.355100000000     0.208400000000     0          
C8       C      0.897500000000     0.352500000000     0.158400000000     0          
C9       C      0.888180000000     0.361820000000     0.123100000000     0          
H5       H      0.898100000000     0.351900000000     0.102800000000     0          
O3       O      0.876200000000     0.782540000000     0.924820000000     0          
C3       C      0.871400000000     0.730100000000     0.973800000000     0          
H1       H      0.869600000000     0.723100000000     0.950100000000     0          
C4       C      0.871200000000     0.706400000000     0.000500000000     0          
H2       H      0.874600000000     0.682500000000     0.995300000000     0          
C1       C      0.870100000000     0.793900000000     0.956100000000     0          
C2       C      0.874600000000     0.766300000000     0.983700000000     0          
C5       C      0.866400000000     0.715900000000     0.034100000000     0          
C6       C      0.870200000000     0.689300000000     0.060700000000     0          
H3       H      0.891900000000     0.680900000000     0.069100000000     0          
N1       N      0.843000000000     0.679300000000     0.070700000000     0          
C7       C      0.813000000000     0.636100000000     0.113900000000     0          
H4       H      0.791600000000     0.644900000000     0.105100000000     0          
C8       C      0.841600000000     0.647500000000     0.102500000000     0          
C9       C      0.876900000000     0.638180000000     0.111820000000     0          
H5       H      0.897200000000     0.648100000000     0.101900000000     0          
O3       O      0.217460000000     0.626200000000     0.674820000000     0          
C3       C      0.269900000000     0.621400000000     0.723800000000     0          
H1       H      0.276900000000     0.619600000000     0.700100000000     0          
C4       C      0.293600000000     0.621200000000     0.750500000000     0          
H2       H      0.317500000000     0.624600000000     0.745300000000     0          
Zr1      Zr     0.189150000000     0.625000000000     0.625000000000     0          
O1       O      0.156100000000     0.656100000000     0.656100000000     0          
O2       O      0.157100000000     0.657100000000     0.592900000000     0          
C1       C      0.206100000000     0.620100000000     0.706100000000     0          
C2       C      0.233700000000     0.624600000000     0.733700000000     0          
C5       C      0.284100000000     0.616400000000     0.784100000000     0          
C6       C      0.310700000000     0.620200000000     0.810700000000     0          
H3       H      0.319100000000     0.641900000000     0.819100000000     0          
N1       N      0.320700000000     0.593000000000     0.820700000000     0          
C7       C      0.363900000000     0.563000000000     0.863900000000     0          
H4       H      0.355100000000     0.541600000000     0.855100000000     0          
C8       C      0.352500000000     0.591600000000     0.852500000000     0          
C9       C      0.361820000000     0.626900000000     0.861820000000     0          
H5       H      0.351900000000     0.647200000000     0.851900000000     0          
O3       O      0.373800000000     0.967460000000     0.424820000000     0          
C3       C      0.378600000000     0.019900000000     0.473800000000     0          
H1       H      0.380400000000     0.026900000000     0.450100000000     0          
C4       C      0.378800000000     0.043600000000     0.500500000000     0          
H2       H      0.375400000000     0.067500000000     0.495300000000     0          
Zr1      Zr     0.375000000000     0.939150000000     0.375000000000     0          
O3       O      0.032540000000     0.123800000000     0.174820000000     0          
C3       C      0.980100000000     0.128600000000     0.223800000000     0          
H1       H      0.973100000000     0.130400000000     0.200100000000     0          
C4       C      0.956400000000     0.128800000000     0.250500000000     0          
H2       H      0.932500000000     0.125400000000     0.245300000000     0          
Zr1      Zr     0.060850000000     0.125000000000     0.125000000000     0          
O3       O      0.876200000000     0.967460000000     0.825180000000     0          
C3       C      0.871400000000     0.019900000000     0.776200000000     0          
H1       H      0.869600000000     0.026900000000     0.799900000000     0          
C4       C      0.871200000000     0.043600000000     0.749500000000     0          
H2       H      0.874600000000     0.067500000000     0.754700000000     0          
Zr1      Zr     0.875000000000     0.939150000000     0.875000000000     0          
C1       C      0.870100000000     0.956100000000     0.793900000000     0          
C2       C      0.874600000000     0.983700000000     0.766300000000     0          
C5       C      0.866400000000     0.034100000000     0.715900000000     0          
C6       C      0.870200000000     0.060700000000     0.689300000000     0          
H3       H      0.891900000000     0.069100000000     0.680900000000     0          
N1       N      0.843000000000     0.070700000000     0.679300000000     0          
C7       C      0.813000000000     0.113900000000     0.636100000000     0          
H4       H      0.791600000000     0.105100000000     0.644900000000     0          
C8       C      0.841600000000     0.102500000000     0.647500000000     0          
C9       C      0.876900000000     0.111820000000     0.638180000000     0          
H5       H      0.897200000000     0.101900000000     0.648100000000     0          
O3       O      0.032540000000     0.626200000000     0.575180000000     0          
C3       C      0.980100000000     0.621400000000     0.526200000000     0          
H1       H      0.973100000000     0.619600000000     0.549900000000     0          
C4       C      0.956400000000     0.621200000000     0.499500000000     0          
H2       H      0.932500000000     0.624600000000     0.504700000000     0          
Zr1      Zr     0.060850000000     0.625000000000     0.625000000000     0          
O1       O      0.093900000000     0.656100000000     0.593900000000     0          
O2       O      0.092900000000     0.657100000000     0.657100000000     0          
C1       C      0.043900000000     0.620100000000     0.543900000000     0          
C2       C      0.016300000000     0.624600000000     0.516300000000     0          
C5       C      0.965900000000     0.616400000000     0.465900000000     0          
C6       C      0.939300000000     0.620200000000     0.439300000000     0          
H3       H      0.930900000000     0.641900000000     0.430900000000     0          
N1       N      0.929300000000     0.593000000000     0.429300000000     0          
C7       C      0.886100000000     0.563000000000     0.386100000000     0          
H4       H      0.894900000000     0.541600000000     0.394900000000     0          
C8       C      0.897500000000     0.591600000000     0.397500000000     0          
C9       C      0.888180000000     0.626900000000     0.388180000000     0          
H5       H      0.898100000000     0.647200000000     0.398100000000     0          
O3       O      0.373800000000     0.782540000000     0.325180000000     0          
C3       C      0.378600000000     0.730100000000     0.276200000000     0          
H1       H      0.380400000000     0.723100000000     0.299900000000     0          
C4       C      0.378800000000     0.706400000000     0.249500000000     0          
H2       H      0.375400000000     0.682500000000     0.254700000000     0          
Zr1      Zr     0.375000000000     0.810850000000     0.375000000000     0          
O3       O      0.217460000000     0.123800000000     0.075180000000     0          
C3       C      0.269900000000     0.128600000000     0.026200000000     0          
H1       H      0.276900000000     0.130400000000     0.049900000000     0          
C4       C      0.293600000000     0.128800000000     0.999500000000     0          
H2       H      0.317500000000     0.125400000000     0.004700000000     0          
C1       C      0.206100000000     0.129900000000     0.043900000000     0          
C2       C      0.233700000000     0.125400000000     0.016300000000     0          
C5       C      0.284100000000     0.133600000000     0.965900000000     0          
C6       C      0.310700000000     0.129800000000     0.939300000000     0          
H3       H      0.319100000000     0.108100000000     0.930900000000     0          
N1       N      0.320700000000     0.157000000000     0.929300000000     0          
C7       C      0.363900000000     0.187000000000     0.886100000000     0          
H4       H      0.355100000000     0.208400000000     0.894900000000     0          
C8       C      0.352500000000     0.158400000000     0.897500000000     0          
C9       C      0.361820000000     0.123100000000     0.888180000000     0          
H5       H      0.351900000000     0.102800000000     0.898100000000     0          
O3       O      0.924820000000     0.876200000000     0.782540000000     0          
C3       C      0.973800000000     0.871400000000     0.730100000000     0          
H1       H      0.950100000000     0.869600000000     0.723100000000     0          
C4       C      0.000500000000     0.871200000000     0.706400000000     0          
H2       H      0.995300000000     0.874600000000     0.682500000000     0          
Zr1      Zr     0.875000000000     0.875000000000     0.810850000000     0          
O3       O      0.424820000000     0.373800000000     0.967460000000     0          
C3       C      0.473800000000     0.378600000000     0.019900000000     0          
H1       H      0.450100000000     0.380400000000     0.026900000000     0          
C4       C      0.500500000000     0.378800000000     0.043600000000     0          
H2       H      0.495300000000     0.375400000000     0.067500000000     0          
O2       O      0.342900000000     0.342900000000     0.907100000000     0          
C1       C      0.456100000000     0.379900000000     0.956100000000     0          
C2       C      0.483700000000     0.375400000000     0.983700000000     0          
C5       C      0.534100000000     0.383600000000     0.034100000000     0          
C6       C      0.560700000000     0.379800000000     0.060700000000     0          
H3       H      0.569100000000     0.358100000000     0.069100000000     0          
N1       N      0.570700000000     0.407000000000     0.070700000000     0          
C7       C      0.613900000000     0.437000000000     0.113900000000     0          
H4       H      0.605100000000     0.458400000000     0.105100000000     0          
C8       C      0.602500000000     0.408400000000     0.102500000000     0          
C9       C      0.611820000000     0.373100000000     0.111820000000     0          
H5       H      0.601900000000     0.352800000000     0.101900000000     0          
O3       O      0.626200000000     0.174820000000     0.717460000000     0          
C3       C      0.621400000000     0.223800000000     0.769900000000     0          
H1       H      0.619600000000     0.200100000000     0.776900000000     0          
C4       C      0.621200000000     0.250500000000     0.793600000000     0          
H2       H      0.624600000000     0.245300000000     0.817500000000     0          
Zr1      Zr     0.625000000000     0.125000000000     0.689150000000     0          
O3       O      0.825180000000     0.376200000000     0.467460000000     0          
C3       C      0.776200000000     0.371400000000     0.519900000000     0          
H1       H      0.799900000000     0.369600000000     0.526900000000     0          
C4       C      0.749500000000     0.371200000000     0.543600000000     0          
H2       H      0.754700000000     0.374600000000     0.567500000000     0          
Zr1      Zr     0.875000000000     0.375000000000     0.439150000000     0          
C1       C      0.793900000000     0.370100000000     0.456100000000     0          
C2       C      0.766300000000     0.374600000000     0.483700000000     0          
C5       C      0.715900000000     0.366400000000     0.534100000000     0          
C6       C      0.689300000000     0.370200000000     0.560700000000     0          
H3       H      0.680900000000     0.391900000000     0.569100000000     0          
N1       N      0.679300000000     0.343000000000     0.570700000000     0          
C7       C      0.636100000000     0.313000000000     0.613900000000     0          
H4       H      0.644900000000     0.291600000000     0.605100000000     0          
C8       C      0.647500000000     0.341600000000     0.602500000000     0          
C9       C      0.638180000000     0.376900000000     0.611820000000     0          
H5       H      0.648100000000     0.397200000000     0.601900000000     0          
O3       O      0.123800000000     0.575180000000     0.717460000000     0          
C3       C      0.128600000000     0.526200000000     0.769900000000     0          
H1       H      0.130400000000     0.549900000000     0.776900000000     0          
C4       C      0.128800000000     0.499500000000     0.793600000000     0          
H2       H      0.125400000000     0.504700000000     0.817500000000     0          
Zr1      Zr     0.125000000000     0.625000000000     0.689150000000     0          
C1       C      0.129900000000     0.543900000000     0.706100000000     0          
C2       C      0.125400000000     0.516300000000     0.733700000000     0          
C5       C      0.133600000000     0.465900000000     0.784100000000     0          
C6       C      0.129800000000     0.439300000000     0.810700000000     0          
H3       H      0.108100000000     0.430900000000     0.819100000000     0          
N1       N      0.157000000000     0.429300000000     0.820700000000     0          
C7       C      0.187000000000     0.386100000000     0.863900000000     0          
H4       H      0.208400000000     0.394900000000     0.855100000000     0          
C8       C      0.158400000000     0.397500000000     0.852500000000     0          
C9       C      0.123100000000     0.388180000000     0.861820000000     0          
H5       H      0.102800000000     0.398100000000     0.851900000000     0          
O3       O      0.825180000000     0.873800000000     0.782540000000     0          
C3       C      0.776200000000     0.878600000000     0.730100000000     0          
H1       H      0.799900000000     0.880400000000     0.723100000000     0          
C4       C      0.749500000000     0.878800000000     0.706400000000     0          
H2       H      0.754700000000     0.875400000000     0.682500000000     0          
C1       C      0.793900000000     0.879900000000     0.793900000000     0          
C2       C      0.766300000000     0.875400000000     0.766300000000     0          
C5       C      0.715900000000     0.883600000000     0.715900000000     0          
C6       C      0.689300000000     0.879800000000     0.689300000000     0          
H3       H      0.680900000000     0.858100000000     0.680900000000     0          
N1       N      0.679300000000     0.907000000000     0.679300000000     0          
C7       C      0.636100000000     0.937000000000     0.636100000000     0          
H4       H      0.644900000000     0.958400000000     0.644900000000     0          
C8       C      0.647500000000     0.908400000000     0.647500000000     0          
C9       C      0.638180000000     0.873100000000     0.638180000000     0          
H5       H      0.648100000000     0.852800000000     0.648100000000     0          
O3       O      0.626200000000     0.075180000000     0.532540000000     0          
C3       C      0.621400000000     0.026200000000     0.480100000000     0          
H1       H      0.619600000000     0.049900000000     0.473100000000     0          
C4       C      0.621200000000     0.999500000000     0.456400000000     0          
H2       H      0.624600000000     0.004700000000     0.432500000000     0          
Zr1      Zr     0.625000000000     0.125000000000     0.560850000000     0          
O3       O      0.623800000000     0.674820000000     0.032540000000     0          
C3       C      0.628600000000     0.723800000000     0.980100000000     0          
H1       H      0.630400000000     0.700100000000     0.973100000000     0          
C4       C      0.628800000000     0.750500000000     0.956400000000     0          
H2       H      0.625400000000     0.745300000000     0.932500000000     0          
O2       O      0.592900000000     0.592900000000     0.092900000000     0          
C1       C      0.629900000000     0.706100000000     0.043900000000     0          
C2       C      0.625400000000     0.733700000000     0.016300000000     0          
C5       C      0.633600000000     0.784100000000     0.965900000000     0          
C6       C      0.629800000000     0.810700000000     0.939300000000     0          
H3       H      0.608100000000     0.819100000000     0.930900000000     0          
N1       N      0.657000000000     0.820700000000     0.929300000000     0          
C7       C      0.687000000000     0.863900000000     0.886100000000     0          
H4       H      0.708400000000     0.855100000000     0.894900000000     0          
C8       C      0.658400000000     0.852500000000     0.897500000000     0          
C9       C      0.623100000000     0.861820000000     0.888180000000     0          
H5       H      0.602800000000     0.851900000000     0.898100000000     0          
O3       O      0.217460000000     0.575180000000     0.623800000000     0          
C3       C      0.269900000000     0.526200000000     0.628600000000     0          
H1       H      0.276900000000     0.549900000000     0.630400000000     0          
C4       C      0.293600000000     0.499500000000     0.628800000000     0          
H2       H      0.317500000000     0.504700000000     0.625400000000     0          
O3       O      0.924820000000     0.967460000000     0.873800000000     0          
C3       C      0.973800000000     0.019900000000     0.878600000000     0          
H1       H      0.950100000000     0.026900000000     0.880400000000     0          
C4       C      0.000500000000     0.043600000000     0.878800000000     0          
H2       H      0.995300000000     0.067500000000     0.875400000000     0          
C1       C      0.956100000000     0.956100000000     0.879900000000     0          
C2       C      0.983700000000     0.983700000000     0.875400000000     0          
C5       C      0.034100000000     0.034100000000     0.883600000000     0          
C6       C      0.060700000000     0.060700000000     0.879800000000     0          
H3       H      0.069100000000     0.069100000000     0.858100000000     0          
N1       N      0.070700000000     0.070700000000     0.907000000000     0          
C7       C      0.113900000000     0.113900000000     0.937000000000     0          
H4       H      0.105100000000     0.105100000000     0.958400000000     0          
C8       C      0.102500000000     0.102500000000     0.908400000000     0          
C9       C      0.111820000000     0.111820000000     0.873100000000     0          
H5       H      0.101900000000     0.101900000000     0.852800000000     0          
O3       O      0.532540000000     0.674820000000     0.123800000000     0          
C3       C      0.480100000000     0.723800000000     0.128600000000     0          
H1       H      0.473100000000     0.700100000000     0.130400000000     0          
C4       C      0.456400000000     0.750500000000     0.128800000000     0          
H2       H      0.432500000000     0.745300000000     0.125400000000     0          
Zr1      Zr     0.560850000000     0.625000000000     0.125000000000     0          
C1       C      0.543900000000     0.706100000000     0.129900000000     0          
C2       C      0.516300000000     0.733700000000     0.125400000000     0          
C5       C      0.465900000000     0.784100000000     0.133600000000     0          
C6       C      0.439300000000     0.810700000000     0.129800000000     0          
H3       H      0.430900000000     0.819100000000     0.108100000000     0          
N1       N      0.429300000000     0.820700000000     0.157000000000     0          
C7       C      0.386100000000     0.863900000000     0.187000000000     0          
H4       H      0.394900000000     0.855100000000     0.208400000000     0          
C8       C      0.397500000000     0.852500000000     0.158400000000     0          
C9       C      0.388180000000     0.861820000000     0.123100000000     0          
H5       H      0.398100000000     0.851900000000     0.102800000000     0          
O3       O      0.825180000000     0.282540000000     0.373800000000     0          
C3       C      0.776200000000     0.230100000000     0.378600000000     0          
H1       H      0.799900000000     0.223100000000     0.380400000000     0          
C4       C      0.749500000000     0.206400000000     0.378800000000     0          
H2       H      0.754700000000     0.182500000000     0.375400000000     0          
Zr1      Zr     0.875000000000     0.310850000000     0.375000000000     0          
C1       C      0.793900000000     0.293900000000     0.379900000000     0          
C2       C      0.766300000000     0.266300000000     0.375400000000     0          
C5       C      0.715900000000     0.215900000000     0.383600000000     0          
C6       C      0.689300000000     0.189300000000     0.379800000000     0          
H3       H      0.680900000000     0.180900000000     0.358100000000     0          
N1       N      0.679300000000     0.179300000000     0.407000000000     0          
C7       C      0.636100000000     0.136100000000     0.437000000000     0          
H4       H      0.644900000000     0.144900000000     0.458400000000     0          
C8       C      0.647500000000     0.147500000000     0.408400000000     0          
C9       C      0.638180000000     0.138180000000     0.373100000000     0          
H5       H      0.648100000000     0.148100000000     0.352800000000     0          
O3       O      0.217460000000     0.674820000000     0.626200000000     0          
C3       C      0.269900000000     0.723800000000     0.621400000000     0          
H1       H      0.276900000000     0.700100000000     0.619600000000     0          
C4       C      0.293600000000     0.750500000000     0.621200000000     0          
H2       H      0.317500000000     0.745300000000     0.624600000000     0          
C1       C      0.206100000000     0.706100000000     0.620100000000     0          
C2       C      0.233700000000     0.733700000000     0.624600000000     0          
C5       C      0.284100000000     0.784100000000     0.616400000000     0          
C6       C      0.310700000000     0.810700000000     0.620200000000     0          
H3       H      0.319100000000     0.819100000000     0.641900000000     0          
N1       N      0.320700000000     0.820700000000     0.593000000000     0          
C7       C      0.363900000000     0.863900000000     0.563000000000     0          
H4       H      0.355100000000     0.855100000000     0.541600000000     0          
C8       C      0.352500000000     0.852500000000     0.591600000000     0          
C9       C      0.361820000000     0.861820000000     0.626900000000     0          
H5       H      0.351900000000     0.851900000000     0.647200000000     0          
O3       O      0.825180000000     0.967460000000     0.876200000000     0          
C3       C      0.776200000000     0.019900000000     0.871400000000     0          
H1       H      0.799900000000     0.026900000000     0.869600000000     0          
C4       C      0.749500000000     0.043600000000     0.871200000000     0          
H2       H      0.754700000000     0.067500000000     0.874600000000     0          
O3       O      0.532540000000     0.575180000000     0.126200000000     0          
C3       C      0.480100000000     0.526200000000     0.121400000000     0          
H1       H      0.473100000000     0.549900000000     0.119600000000     0          
C4       C      0.456400000000     0.499500000000     0.121200000000     0          
H2       H      0.432500000000     0.504700000000     0.124600000000     0          
O1       O      0.593900000000     0.593900000000     0.156100000000     0          
O2       O      0.592900000000     0.657100000000     0.157100000000     0          
C1       C      0.543900000000     0.543900000000     0.120100000000     0          
C2       C      0.516300000000     0.516300000000     0.124600000000     0          
C5       C      0.465900000000     0.465900000000     0.116400000000     0          
C6       C      0.439300000000     0.439300000000     0.120200000000     0          
H3       H      0.430900000000     0.430900000000     0.141900000000     0          
N1       N      0.429300000000     0.429300000000     0.093000000000     0          
C7       C      0.386100000000     0.386100000000     0.063000000000     0          
H4       H      0.394900000000     0.394900000000     0.041600000000     0          
C8       C      0.397500000000     0.397500000000     0.091600000000     0          
C9       C      0.388180000000     0.388180000000     0.126900000000     0          
H5       H      0.398100000000     0.398100000000     0.147200000000     0          
O3       O      0.924820000000     0.282540000000     0.376200000000     0          
C3       C      0.973800000000     0.230100000000     0.371400000000     0          
H1       H      0.950100000000     0.223100000000     0.369600000000     0          
C4       C      0.000500000000     0.206400000000     0.371200000000     0          
H2       H      0.995300000000     0.182500000000     0.374600000000     0          
C1       C      0.956100000000     0.293900000000     0.370100000000     0          
C2       C      0.983700000000     0.266300000000     0.374600000000     0          
C5       C      0.034100000000     0.215900000000     0.366400000000     0          
C6       C      0.060700000000     0.189300000000     0.370200000000     0          
H3       H      0.069100000000     0.180900000000     0.391900000000     0          
N1       N      0.070700000000     0.179300000000     0.343000000000     0          
C7       C      0.113900000000     0.136100000000     0.313000000000     0          
H4       H      0.105100000000     0.144900000000     0.291600000000     0          
C8       C      0.102500000000     0.147500000000     0.341600000000     0          
C9       C      0.111820000000     0.138180000000     0.376900000000     0          
H5       H      0.101900000000     0.148100000000     0.397200000000     0          
O3       O      0.123800000000     0.717460000000     0.575180000000     0          
C3       C      0.128600000000     0.769900000000     0.526200000000     0          
H1       H      0.130400000000     0.776900000000     0.549900000000     0          
C4       C      0.128800000000     0.793600000000     0.499500000000     0          
H2       H      0.125400000000     0.817500000000     0.504700000000     0          
Zr1      Zr     0.125000000000     0.689150000000     0.625000000000     0          
C1       C      0.129900000000     0.706100000000     0.543900000000     0          
C2       C      0.125400000000     0.733700000000     0.516300000000     0          
C5       C      0.133600000000     0.784100000000     0.465900000000     0          
C6       C      0.129800000000     0.810700000000     0.439300000000     0          
H3       H      0.108100000000     0.819100000000     0.430900000000     0          
N1       N      0.157000000000     0.820700000000     0.429300000000     0          
C7       C      0.187000000000     0.863900000000     0.386100000000     0          
H4       H      0.208400000000     0.855100000000     0.394900000000     0          
C8       C      0.158400000000     0.852500000000     0.397500000000     0          
C9       C      0.123100000000     0.861820000000     0.388180000000     0          
H5       H      0.102800000000     0.851900000000     0.398100000000     0          
O3       O      0.782540000000     0.873800000000     0.825180000000     0          
C3       C      0.730100000000     0.878600000000     0.776200000000     0          
H1       H      0.723100000000     0.880400000000     0.799900000000     0          
C4       C      0.706400000000     0.878800000000     0.749500000000     0          
H2       H      0.682500000000     0.875400000000     0.754700000000     0          
O3       O      0.626200000000     0.532540000000     0.075180000000     0          
C3       C      0.621400000000     0.480100000000     0.026200000000     0          
H1       H      0.619600000000     0.473100000000     0.049900000000     0          
C4       C      0.621200000000     0.456400000000     0.999500000000     0          
H2       H      0.624600000000     0.432500000000     0.004700000000     0          
Zr1      Zr     0.625000000000     0.560850000000     0.125000000000     0          
O1       O      0.656100000000     0.593900000000     0.093900000000     0          
O2       O      0.657100000000     0.592900000000     0.157100000000     0          
C1       C      0.620100000000     0.543900000000     0.043900000000     0          
C2       C      0.624600000000     0.516300000000     0.016300000000     0          
C5       C      0.616400000000     0.465900000000     0.965900000000     0          
C6       C      0.620200000000     0.439300000000     0.939300000000     0          
H3       H      0.641900000000     0.430900000000     0.930900000000     0          
N1       N      0.593000000000     0.429300000000     0.929300000000     0          
C7       C      0.563000000000     0.386100000000     0.886100000000     0          
H4       H      0.541600000000     0.394900000000     0.894900000000     0          
C8       C      0.591600000000     0.397500000000     0.897500000000     0          
C9       C      0.626900000000     0.388180000000     0.888180000000     0          
H5       H      0.647200000000     0.398100000000     0.898100000000     0          
O3       O      0.967460000000     0.376200000000     0.325180000000     0          
C3       C      0.019900000000     0.371400000000     0.276200000000     0          
H1       H      0.026900000000     0.369600000000     0.299900000000     0          
C4       C      0.043600000000     0.371200000000     0.249500000000     0          
H2       H      0.067500000000     0.374600000000     0.254700000000     0          
C1       C      0.956100000000     0.370100000000     0.293900000000     0          
C2       C      0.983700000000     0.374600000000     0.266300000000     0          
C5       C      0.034100000000     0.366400000000     0.215900000000     0          
C6       C      0.060700000000     0.370200000000     0.189300000000     0          
H3       H      0.069100000000     0.391900000000     0.180900000000     0          
N1       N      0.070700000000     0.343000000000     0.179300000000     0          
C7       C      0.113900000000     0.313000000000     0.136100000000     0          
H4       H      0.105100000000     0.291600000000     0.144900000000     0          
C8       C      0.102500000000     0.341600000000     0.147500000000     0          
C9       C      0.111820000000     0.376900000000     0.138180000000     0          
H5       H      0.101900000000     0.397200000000     0.148100000000     0          
O3       O      0.123800000000     0.532540000000     0.674820000000     0          
C3       C      0.128600000000     0.480100000000     0.723800000000     0          
H1       H      0.130400000000     0.473100000000     0.700100000000     0          
C4       C      0.128800000000     0.456400000000     0.750500000000     0          
H2       H      0.125400000000     0.432500000000     0.745300000000     0          
O3       O      0.967460000000     0.873800000000     0.924820000000     0          
C3       C      0.019900000000     0.878600000000     0.973800000000     0          
H1       H      0.026900000000     0.880400000000     0.950100000000     0          
C4       C      0.043600000000     0.878800000000     0.000500000000     0          
H2       H      0.067500000000     0.875400000000     0.995300000000     0          
C1       C      0.956100000000     0.879900000000     0.956100000000     0          
C2       C      0.983700000000     0.875400000000     0.983700000000     0          
C5       C      0.034100000000     0.883600000000     0.034100000000     0          
C6       C      0.060700000000     0.879800000000     0.060700000000     0          
H3       H      0.069100000000     0.858100000000     0.069100000000     0          
N1       N      0.070700000000     0.907000000000     0.070700000000     0          
C7       C      0.113900000000     0.937000000000     0.113900000000     0          
H4       H      0.105100000000     0.958400000000     0.105100000000     0          
C8       C      0.102500000000     0.908400000000     0.102500000000     0          
C9       C      0.111820000000     0.873100000000     0.111820000000     0          
H5       H      0.101900000000     0.852800000000     0.101900000000     0          
O3       O      0.626200000000     0.717460000000     0.174820000000     0          
C3       C      0.621400000000     0.769900000000     0.223800000000     0          
H1       H      0.619600000000     0.776900000000     0.200100000000     0          
C4       C      0.621200000000     0.793600000000     0.250500000000     0          
H2       H      0.624600000000     0.817500000000     0.245300000000     0          
Zr1      Zr     0.625000000000     0.689150000000     0.125000000000     0          
O1       O      0.656100000000     0.656100000000     0.156100000000     0          
C1       C      0.620100000000     0.706100000000     0.206100000000     0          
C2       C      0.624600000000     0.733700000000     0.233700000000     0          
C5       C      0.616400000000     0.784100000000     0.284100000000     0          
C6       C      0.620200000000     0.810700000000     0.310700000000     0          
H3       H      0.641900000000     0.819100000000     0.319100000000     0          
N1       N      0.593000000000     0.820700000000     0.320700000000     0          
C7       C      0.563000000000     0.863900000000     0.363900000000     0          
H4       H      0.541600000000     0.855100000000     0.355100000000     0          
C8       C      0.591600000000     0.852500000000     0.352500000000     0          
C9       C      0.626900000000     0.861820000000     0.361820000000     0          
H5       H      0.647200000000     0.851900000000     0.351900000000     0          
O3       O      0.782540000000     0.376200000000     0.424820000000     0          
C3       C      0.730100000000     0.371400000000     0.473800000000     0          
H1       H      0.723100000000     0.369600000000     0.450100000000     0          
C4       C      0.706400000000     0.371200000000     0.500500000000     0          
H2       H      0.682500000000     0.374600000000     0.495300000000     0          
O3       O      0.075180000000     0.623800000000     0.717460000000     0          
C3       C      0.026200000000     0.628600000000     0.769900000000     0          
H1       H      0.049900000000     0.630400000000     0.776900000000     0          
C4       C      0.999500000000     0.628800000000     0.793600000000     0          
H2       H      0.004700000000     0.625400000000     0.817500000000     0          
C1       C      0.043900000000     0.629900000000     0.706100000000     0          
C2       C      0.016300000000     0.625400000000     0.733700000000     0          
C5       C      0.965900000000     0.633600000000     0.784100000000     0          
C6       C      0.939300000000     0.629800000000     0.810700000000     0          
H3       H      0.930900000000     0.608100000000     0.819100000000     0          
N1       N      0.929300000000     0.657000000000     0.820700000000     0          
C7       C      0.886100000000     0.687000000000     0.863900000000     0          
H4       H      0.894900000000     0.708400000000     0.855100000000     0          
C8       C      0.897500000000     0.658400000000     0.852500000000     0          
C9       C      0.888180000000     0.623100000000     0.861820000000     0          
H5       H      0.898100000000     0.602800000000     0.851900000000     0          
O3       O      0.575180000000     0.126200000000     0.532540000000     0          
C3       C      0.526200000000     0.121400000000     0.480100000000     0          
H1       H      0.549900000000     0.119600000000     0.473100000000     0          
C4       C      0.499500000000     0.121200000000     0.456400000000     0          
H2       H      0.504700000000     0.124600000000     0.432500000000     0          
C1       C      0.543900000000     0.120100000000     0.543900000000     0          
C2       C      0.516300000000     0.124600000000     0.516300000000     0          
C5       C      0.465900000000     0.116400000000     0.465900000000     0          
C6       C      0.439300000000     0.120200000000     0.439300000000     0          
H3       H      0.430900000000     0.141900000000     0.430900000000     0          
N1       N      0.429300000000     0.093000000000     0.429300000000     0          
C7       C      0.386100000000     0.063000000000     0.386100000000     0          
H4       H      0.394900000000     0.041600000000     0.394900000000     0          
C8       C      0.397500000000     0.091600000000     0.397500000000     0          
C9       C      0.388180000000     0.126900000000     0.388180000000     0          
H5       H      0.398100000000     0.147200000000     0.398100000000     0          
O3       O      0.373800000000     0.325180000000     0.782540000000     0          
C3       C      0.378600000000     0.276200000000     0.730100000000     0          
H1       H      0.380400000000     0.299900000000     0.723100000000     0          
C4       C      0.378800000000     0.249500000000     0.706400000000     0          
H2       H      0.375400000000     0.254700000000     0.682500000000     0          
Zr1      Zr     0.375000000000     0.375000000000     0.810850000000     0          
O1       O      0.343900000000     0.343900000000     0.843900000000     0          
O2       O      0.342900000000     0.407100000000     0.842900000000     0          
C1       C      0.379900000000     0.293900000000     0.793900000000     0          
C2       C      0.375400000000     0.266300000000     0.766300000000     0          
C5       C      0.383600000000     0.215900000000     0.715900000000     0          
C6       C      0.379800000000     0.189300000000     0.689300000000     0          
H3       H      0.358100000000     0.180900000000     0.680900000000     0          
N1       N      0.407000000000     0.179300000000     0.679300000000     0          
C7       C      0.437000000000     0.136100000000     0.636100000000     0          
H4       H      0.458400000000     0.144900000000     0.644900000000     0          
C8       C      0.408400000000     0.147500000000     0.647500000000     0          
C9       C      0.373100000000     0.138180000000     0.638180000000     0          
H5       H      0.352800000000     0.148100000000     0.648100000000     0          
O3       O      0.174820000000     0.123800000000     0.032540000000     0          
C3       C      0.223800000000     0.128600000000     0.980100000000     0          
H1       H      0.200100000000     0.130400000000     0.973100000000     0          
C4       C      0.250500000000     0.128800000000     0.956400000000     0          
H2       H      0.245300000000     0.125400000000     0.932500000000     0          
Zr1      Zr     0.125000000000     0.125000000000     0.060850000000     0          
O3       O      0.876200000000     0.924820000000     0.782540000000     0          
C3       C      0.871400000000     0.973800000000     0.730100000000     0          
H1       H      0.869600000000     0.950100000000     0.723100000000     0          
C4       C      0.871200000000     0.000500000000     0.706400000000     0          
H2       H      0.874600000000     0.995300000000     0.682500000000     0          
O3       O      0.174820000000     0.626200000000     0.717460000000     0          
C3       C      0.223800000000     0.621400000000     0.769900000000     0          
H1       H      0.200100000000     0.619600000000     0.776900000000     0          
C4       C      0.250500000000     0.621200000000     0.793600000000     0          
H2       H      0.245300000000     0.624600000000     0.817500000000     0          
O3       O      0.373800000000     0.424820000000     0.967460000000     0          
C3       C      0.378600000000     0.473800000000     0.019900000000     0          
H1       H      0.380400000000     0.450100000000     0.026900000000     0          
C4       C      0.378800000000     0.500500000000     0.043600000000     0          
H2       H      0.375400000000     0.495300000000     0.067500000000     0          
O1       O      0.343900000000     0.406100000000     0.906100000000     0          
C1       C      0.379900000000     0.456100000000     0.956100000000     0          
C2       C      0.375400000000     0.483700000000     0.983700000000     0          
C5       C      0.383600000000     0.534100000000     0.034100000000     0          
C6       C      0.379800000000     0.560700000000     0.060700000000     0          
H3       H      0.358100000000     0.569100000000     0.069100000000     0          
N1       N      0.407000000000     0.570700000000     0.070700000000     0          
C7       C      0.437000000000     0.613900000000     0.113900000000     0          
H4       H      0.458400000000     0.605100000000     0.105100000000     0          
C8       C      0.408400000000     0.602500000000     0.102500000000     0          
C9       C      0.373100000000     0.611820000000     0.111820000000     0          
H5       H      0.352800000000     0.601900000000     0.101900000000     0          
O3       O      0.376200000000     0.825180000000     0.467460000000     0          
C3       C      0.371400000000     0.776200000000     0.519900000000     0          
H1       H      0.369600000000     0.799900000000     0.526900000000     0          
C4       C      0.371200000000     0.749500000000     0.543600000000     0          
H2       H      0.374600000000     0.754700000000     0.567500000000     0          
C1       C      0.370100000000     0.793900000000     0.456100000000     0          
C2       C      0.374600000000     0.766300000000     0.483700000000     0          
C5       C      0.366400000000     0.715900000000     0.534100000000     0          
C6       C      0.370200000000     0.689300000000     0.560700000000     0          
H3       H      0.391900000000     0.680900000000     0.569100000000     0          
N1       N      0.343000000000     0.679300000000     0.570700000000     0          
C7       C      0.313000000000     0.636100000000     0.613900000000     0          
H4       H      0.291600000000     0.644900000000     0.605100000000     0          
C8       C      0.341600000000     0.647500000000     0.602500000000     0          
C9       C      0.376900000000     0.638180000000     0.611820000000     0          
H5       H      0.397200000000     0.648100000000     0.601900000000     0          
O3       O      0.782540000000     0.424820000000     0.376200000000     0          
C3       C      0.730100000000     0.473800000000     0.371400000000     0          
H1       H      0.723100000000     0.450100000000     0.369600000000     0          
C4       C      0.706400000000     0.500500000000     0.371200000000     0          
H2       H      0.682500000000     0.495300000000     0.374600000000     0          
O3       O      0.075180000000     0.032540000000     0.126200000000     0          
C3       C      0.026200000000     0.980100000000     0.121400000000     0          
H1       H      0.049900000000     0.973100000000     0.119600000000     0          
C4       C      0.999500000000     0.956400000000     0.121200000000     0          
H2       H      0.004700000000     0.932500000000     0.124600000000     0          
C1       C      0.043900000000     0.043900000000     0.120100000000     0          
C2       C      0.016300000000     0.016300000000     0.124600000000     0          
C5       C      0.965900000000     0.965900000000     0.116400000000     0          
C6       C      0.939300000000     0.939300000000     0.120200000000     0          
H3       H      0.930900000000     0.930900000000     0.141900000000     0          
N1       N      0.929300000000     0.929300000000     0.093000000000     0          
C7       C      0.886100000000     0.886100000000     0.063000000000     0          
H4       H      0.894900000000     0.894900000000     0.041600000000     0          
C8       C      0.897500000000     0.897500000000     0.091600000000     0          
C9       C      0.888180000000     0.888180000000     0.126900000000     0          
H5       H      0.898100000000     0.898100000000     0.147200000000     0          
O3       O      0.467460000000     0.325180000000     0.876200000000     0          
C3       C      0.519900000000     0.276200000000     0.871400000000     0          
H1       H      0.526900000000     0.299900000000     0.869600000000     0          
C4       C      0.543600000000     0.249500000000     0.871200000000     0          
H2       H      0.567500000000     0.254700000000     0.874600000000     0          
Zr1      Zr     0.439150000000     0.375000000000     0.875000000000     0          
C1       C      0.456100000000     0.293900000000     0.870100000000     0          
C2       C      0.483700000000     0.266300000000     0.874600000000     0          
C5       C      0.534100000000     0.215900000000     0.866400000000     0          
C6       C      0.560700000000     0.189300000000     0.870200000000     0          
H3       H      0.569100000000     0.180900000000     0.891900000000     0          
N1       N      0.570700000000     0.179300000000     0.843000000000     0          
C7       C      0.613900000000     0.136100000000     0.813000000000     0          
H4       H      0.605100000000     0.144900000000     0.791600000000     0          
C8       C      0.602500000000     0.147500000000     0.841600000000     0          
C9       C      0.611820000000     0.138180000000     0.876900000000     0          
H5       H      0.601900000000     0.148100000000     0.897200000000     0          
O3       O      0.174820000000     0.717460000000     0.626200000000     0          
C3       C      0.223800000000     0.769900000000     0.621400000000     0          
H1       H      0.200100000000     0.776900000000     0.619600000000     0          
C4       C      0.250500000000     0.793600000000     0.621200000000     0          
H2       H      0.245300000000     0.817500000000     0.624600000000     0          
O3       O      0.782540000000     0.325180000000     0.373800000000     0          
C3       C      0.730100000000     0.276200000000     0.378600000000     0          
H1       H      0.723100000000     0.299900000000     0.380400000000     0          
C4       C      0.706400000000     0.249500000000     0.378800000000     0          
H2       H      0.682500000000     0.254700000000     0.375400000000     0          
O3       O      0.174820000000     0.032540000000     0.123800000000     0          
C3       C      0.223800000000     0.980100000000     0.128600000000     0          
H1       H      0.200100000000     0.973100000000     0.130400000000     0          
C4       C      0.250500000000     0.956400000000     0.128800000000     0          
H2       H      0.245300000000     0.932500000000     0.125400000000     0          
O3       O      0.467460000000     0.424820000000     0.873800000000     0          
C3       C      0.519900000000     0.473800000000     0.878600000000     0          
H1       H      0.526900000000     0.450100000000     0.880400000000     0          
C4       C      0.543600000000     0.500500000000     0.878800000000     0          
H2       H      0.567500000000     0.495300000000     0.875400000000     0          
O1       O      0.406100000000     0.406100000000     0.843900000000     0          
O2       O      0.407100000000     0.342900000000     0.842900000000     0          
C1       C      0.456100000000     0.456100000000     0.879900000000     0          
C2       C      0.483700000000     0.483700000000     0.875400000000     0          
C5       C      0.534100000000     0.534100000000     0.883600000000     0          
C6       C      0.560700000000     0.560700000000     0.879800000000     0          
H3       H      0.569100000000     0.569100000000     0.858100000000     0          
N1       N      0.570700000000     0.570700000000     0.907000000000     0          
C7       C      0.613900000000     0.613900000000     0.937000000000     0          
H4       H      0.605100000000     0.605100000000     0.958400000000     0          
C8       C      0.602500000000     0.602500000000     0.908400000000     0          
C9       C      0.611820000000     0.611820000000     0.873100000000     0          
H5       H      0.601900000000     0.601900000000     0.852800000000     0          
O3       O      0.075180000000     0.717460000000     0.623800000000     0          
C3       C      0.026200000000     0.769900000000     0.628600000000     0          
H1       H      0.049900000000     0.776900000000     0.630400000000     0          
C4       C      0.999500000000     0.793600000000     0.628800000000     0          
H2       H      0.004700000000     0.817500000000     0.625400000000     0          
C1       C      0.043900000000     0.706100000000     0.629900000000     0          
C2       C      0.016300000000     0.733700000000     0.625400000000     0          
C5       C      0.965900000000     0.784100000000     0.633600000000     0          
C6       C      0.939300000000     0.810700000000     0.629800000000     0          
H3       H      0.930900000000     0.819100000000     0.608100000000     0          
N1       N      0.929300000000     0.820700000000     0.657000000000     0          
C7       C      0.886100000000     0.863900000000     0.687000000000     0          
H4       H      0.894900000000     0.855100000000     0.708400000000     0          
C8       C      0.897500000000     0.852500000000     0.658400000000     0          
C9       C      0.888180000000     0.861820000000     0.623100000000     0          
H5       H      0.898100000000     0.851900000000     0.602800000000     0          
O3       O      0.876200000000     0.282540000000     0.424820000000     0          
C3       C      0.871400000000     0.230100000000     0.473800000000     0          
H1       H      0.869600000000     0.223100000000     0.450100000000     0          
C4       C      0.871200000000     0.206400000000     0.500500000000     0          
H2       H      0.874600000000     0.182500000000     0.495300000000     0          
C1       C      0.870100000000     0.293900000000     0.456100000000     0          
C2       C      0.874600000000     0.266300000000     0.483700000000     0          
C5       C      0.866400000000     0.215900000000     0.534100000000     0          
C6       C      0.870200000000     0.189300000000     0.560700000000     0          
H3       H      0.891900000000     0.180900000000     0.569100000000     0          
N1       N      0.843000000000     0.179300000000     0.570700000000     0          
C7       C      0.813000000000     0.136100000000     0.613900000000     0          
H4       H      0.791600000000     0.144900000000     0.605100000000     0          
C8       C      0.841600000000     0.147500000000     0.602500000000     0          
C9       C      0.876900000000     0.138180000000     0.611820000000     0          
H5       H      0.897200000000     0.148100000000     0.601900000000     0          
O3       O      0.217460000000     0.126200000000     0.174820000000     0          
C3       C      0.269900000000     0.121400000000     0.223800000000     0          
H1       H      0.276900000000     0.119600000000     0.200100000000     0          
C4       C      0.293600000000     0.121200000000     0.250500000000     0          
H2       H      0.317500000000     0.124600000000     0.245300000000     0          
O3       O      0.373800000000     0.467460000000     0.924820000000     0          
C3       C      0.378600000000     0.519900000000     0.973800000000     0          
H1       H      0.380400000000     0.526900000000     0.950100000000     0          
C4       C      0.378800000000     0.543600000000     0.000500000000     0          
H2       H      0.375400000000     0.567500000000     0.995300000000     0          
Zr1      Zr     0.375000000000     0.439150000000     0.875000000000     0          
O3       O      0.032540000000     0.623800000000     0.674820000000     0          
C3       C      0.980100000000     0.628600000000     0.723800000000     0          
H1       H      0.973100000000     0.630400000000     0.700100000000     0          
C4       C      0.956400000000     0.628800000000     0.750500000000     0          
H2       H      0.932500000000     0.625400000000     0.745300000000     0          
O3       O      0.876200000000     0.467460000000     0.325180000000     0          
C3       C      0.871400000000     0.519900000000     0.276200000000     0          
H1       H      0.869600000000     0.526900000000     0.299900000000     0          
C4       C      0.871200000000     0.543600000000     0.249500000000     0          
H2       H      0.874600000000     0.567500000000     0.254700000000     0          
O3       O      0.032540000000     0.126200000000     0.075180000000     0          
C3       C      0.980100000000     0.121400000000     0.026200000000     0          
H1       H      0.973100000000     0.119600000000     0.049900000000     0          
C4       C      0.956400000000     0.121200000000     0.999500000000     0          
H2       H      0.932500000000     0.124600000000     0.004700000000     0          
C1       C      0.043900000000     0.120100000000     0.043900000000     0          
C2       C      0.016300000000     0.124600000000     0.016300000000     0          
C5       C      0.965900000000     0.116400000000     0.965900000000     0          
C6       C      0.939300000000     0.120200000000     0.939300000000     0          
H3       H      0.930900000000     0.141900000000     0.930900000000     0          
N1       N      0.929300000000     0.093000000000     0.929300000000     0          
C7       C      0.886100000000     0.063000000000     0.886100000000     0          
H4       H      0.894900000000     0.041600000000     0.894900000000     0          
C8       C      0.897500000000     0.091600000000     0.897500000000     0          
C9       C      0.888180000000     0.126900000000     0.888180000000     0          
H5       H      0.898100000000     0.147200000000     0.898100000000     0          
O3       O      0.373800000000     0.282540000000     0.825180000000     0          
C3       C      0.378600000000     0.230100000000     0.776200000000     0          
H1       H      0.380400000000     0.223100000000     0.799900000000     0          
C4       C      0.378800000000     0.206400000000     0.749500000000     0          
H2       H      0.375400000000     0.182500000000     0.754700000000     0          
Zr1      Zr     0.375000000000     0.310850000000     0.875000000000     0          
O3       O      0.217460000000     0.623800000000     0.575180000000     0          
C3       C      0.269900000000     0.628600000000     0.526200000000     0          
H1       H      0.276900000000     0.630400000000     0.549900000000     0          
C4       C      0.293600000000     0.628800000000     0.499500000000     0          
H2       H      0.317500000000     0.625400000000     0.504700000000     0          
O3       O      0.924820000000     0.376200000000     0.282540000000     0          
C3       C      0.973800000000     0.371400000000     0.230100000000     0          
H1       H      0.950100000000     0.369600000000     0.223100000000     0          
C4       C      0.000500000000     0.371200000000     0.206400000000     0          
H2       H      0.995300000000     0.374600000000     0.182500000000     0          
O3       O      0.424820000000     0.873800000000     0.467460000000     0          
C3       C      0.473800000000     0.878600000000     0.519900000000     0          
H1       H      0.450100000000     0.880400000000     0.526900000000     0          
C4       C      0.500500000000     0.878800000000     0.543600000000     0          
H2       H      0.495300000000     0.875400000000     0.567500000000     0          
C1       C      0.456100000000     0.879900000000     0.456100000000     0          
C2       C      0.483700000000     0.875400000000     0.483700000000     0          
C5       C      0.534100000000     0.883600000000     0.534100000000     0          
C6       C      0.560700000000     0.879800000000     0.560700000000     0          
H3       H      0.569100000000     0.858100000000     0.569100000000     0          
N1       N      0.570700000000     0.907000000000     0.570700000000     0          
C7       C      0.613900000000     0.937000000000     0.613900000000     0          
H4       H      0.605100000000     0.958400000000     0.605100000000     0          
C8       C      0.602500000000     0.908400000000     0.602500000000     0          
C9       C      0.611820000000     0.873100000000     0.611820000000     0          
H5       H      0.601900000000     0.852800000000     0.601900000000     0          
O3       O      0.626200000000     0.674820000000     0.217460000000     0          
C3       C      0.621400000000     0.723800000000     0.269900000000     0          
H1       H      0.619600000000     0.700100000000     0.276900000000     0          
C4       C      0.621200000000     0.750500000000     0.293600000000     0          
H2       H      0.624600000000     0.745300000000     0.317500000000     0          
Zr1      Zr     0.625000000000     0.625000000000     0.189150000000     0          
O3       O      0.825180000000     0.876200000000     0.967460000000     0          
C3       C      0.776200000000     0.871400000000     0.019900000000     0          
H1       H      0.799900000000     0.869600000000     0.026900000000     0          
C4       C      0.749500000000     0.871200000000     0.043600000000     0          
H2       H      0.754700000000     0.874600000000     0.067500000000     0          
Zr1      Zr     0.875000000000     0.875000000000     0.939150000000     0          
O3       O      0.123800000000     0.075180000000     0.217460000000     0          
C3       C      0.128600000000     0.026200000000     0.269900000000     0          
H1       H      0.130400000000     0.049900000000     0.276900000000     0          
C4       C      0.128800000000     0.999500000000     0.293600000000     0          
H2       H      0.125400000000     0.004700000000     0.317500000000     0          
O3       O      0.825180000000     0.373800000000     0.282540000000     0          
C3       C      0.776200000000     0.378600000000     0.230100000000     0          
H1       H      0.799900000000     0.380400000000     0.223100000000     0          
C4       C      0.749500000000     0.378800000000     0.206400000000     0          
H2       H      0.754700000000     0.375400000000     0.182500000000     0          
O3       O      0.626200000000     0.575180000000     0.032540000000     0          
C3       C      0.621400000000     0.526200000000     0.980100000000     0          
H1       H      0.619600000000     0.549900000000     0.973100000000     0          
C4       C      0.621200000000     0.499500000000     0.956400000000     0          
H2       H      0.624600000000     0.504700000000     0.932500000000     0          
O3       O      0.623800000000     0.174820000000     0.532540000000     0          
C3       C      0.628600000000     0.223800000000     0.480100000000     0          
H1       H      0.630400000000     0.200100000000     0.473100000000     0          
C4       C      0.628800000000     0.250500000000     0.456400000000     0          
H2       H      0.625400000000     0.245300000000     0.432500000000     0          
C1       C      0.629900000000     0.206100000000     0.543900000000     0          
C2       C      0.625400000000     0.233700000000     0.516300000000     0          
C5       C      0.633600000000     0.284100000000     0.465900000000     0          
C6       C      0.629800000000     0.310700000000     0.439300000000     0          
H3       H      0.608100000000     0.319100000000     0.430900000000     0          
N1       N      0.657000000000     0.320700000000     0.429300000000     0          
C7       C      0.687000000000     0.363900000000     0.386100000000     0          
H4       H      0.708400000000     0.355100000000     0.394900000000     0          
C8       C      0.658400000000     0.352500000000     0.397500000000     0          
C9       C      0.623100000000     0.361820000000     0.388180000000     0          
H5       H      0.602800000000     0.351900000000     0.398100000000     0          
O3       O      0.717460000000     0.075180000000     0.623800000000     0          
C3       C      0.769900000000     0.026200000000     0.628600000000     0          
H1       H      0.776900000000     0.049900000000     0.630400000000     0          
C4       C      0.793600000000     0.999500000000     0.628800000000     0          
H2       H      0.817500000000     0.004700000000     0.625400000000     0          
Zr1      Zr     0.689150000000     0.125000000000     0.625000000000     0          
C1       C      0.706100000000     0.043900000000     0.629900000000     0          
C2       C      0.733700000000     0.016300000000     0.625400000000     0          
C5       C      0.784100000000     0.965900000000     0.633600000000     0          
C6       C      0.810700000000     0.939300000000     0.629800000000     0          
H3       H      0.819100000000     0.930900000000     0.608100000000     0          
N1       N      0.820700000000     0.929300000000     0.657000000000     0          
C7       C      0.863900000000     0.886100000000     0.687000000000     0          
H4       H      0.855100000000     0.894900000000     0.708400000000     0          
C8       C      0.852500000000     0.897500000000     0.658400000000     0          
C9       C      0.861820000000     0.888180000000     0.623100000000     0          
H5       H      0.851900000000     0.898100000000     0.602800000000     0          
O3       O      0.424820000000     0.467460000000     0.873800000000     0          
C3       C      0.473800000000     0.519900000000     0.878600000000     0          
H1       H      0.450100000000     0.526900000000     0.880400000000     0          
C4       C      0.500500000000     0.543600000000     0.878800000000     0          
H2       H      0.495300000000     0.567500000000     0.875400000000     0          
O3       O      0.032540000000     0.174820000000     0.123800000000     0          
C3       C      0.980100000000     0.223800000000     0.128600000000     0          
H1       H      0.973100000000     0.200100000000     0.130400000000     0          
C4       C      0.956400000000     0.250500000000     0.128800000000     0          
H2       H      0.932500000000     0.245300000000     0.125400000000     0          
O3       O      0.325180000000     0.782540000000     0.373800000000     0          
C3       C      0.276200000000     0.730100000000     0.378600000000     0          
H1       H      0.299900000000     0.723100000000     0.380400000000     0          
C4       C      0.249500000000     0.706400000000     0.378800000000     0          
H2       H      0.254700000000     0.682500000000     0.375400000000     0          
C1       C      0.293900000000     0.793900000000     0.379900000000     0          
C2       C      0.266300000000     0.766300000000     0.375400000000     0          
C5       C      0.215900000000     0.715900000000     0.383600000000     0          
C6       C      0.189300000000     0.689300000000     0.379800000000     0          
H3       H      0.180900000000     0.680900000000     0.358100000000     0          
N1       N      0.179300000000     0.679300000000     0.407000000000     0          
C7       C      0.136100000000     0.636100000000     0.437000000000     0          
H4       H      0.144900000000     0.644900000000     0.458400000000     0          
C8       C      0.147500000000     0.647500000000     0.408400000000     0          
C9       C      0.138180000000     0.638180000000     0.373100000000     0          
H5       H      0.148100000000     0.648100000000     0.352800000000     0          
O3       O      0.717460000000     0.174820000000     0.626200000000     0          
C3       C      0.769900000000     0.223800000000     0.621400000000     0          
H1       H      0.776900000000     0.200100000000     0.619600000000     0          
C4       C      0.793600000000     0.250500000000     0.621200000000     0          
H2       H      0.817500000000     0.245300000000     0.624600000000     0          
C1       C      0.706100000000     0.206100000000     0.620100000000     0          
C2       C      0.733700000000     0.233700000000     0.624600000000     0          
C5       C      0.784100000000     0.284100000000     0.616400000000     0          
C6       C      0.810700000000     0.310700000000     0.620200000000     0          
H3       H      0.819100000000     0.319100000000     0.641900000000     0          
N1       N      0.820700000000     0.320700000000     0.593000000000     0          
C7       C      0.863900000000     0.363900000000     0.563000000000     0          
H4       H      0.855100000000     0.355100000000     0.541600000000     0          
C8       C      0.852500000000     0.352500000000     0.591600000000     0          
C9       C      0.861820000000     0.361820000000     0.626900000000     0          
H5       H      0.851900000000     0.351900000000     0.647200000000     0          
O3       O      0.325180000000     0.467460000000     0.876200000000     0          
C3       C      0.276200000000     0.519900000000     0.871400000000     0          
H1       H      0.299900000000     0.526900000000     0.869600000000     0          
C4       C      0.249500000000     0.543600000000     0.871200000000     0          
H2       H      0.254700000000     0.567500000000     0.874600000000     0          
C1       C      0.293900000000     0.456100000000     0.870100000000     0          
C2       C      0.266300000000     0.483700000000     0.874600000000     0          
C5       C      0.215900000000     0.534100000000     0.866400000000     0          
C6       C      0.189300000000     0.560700000000     0.870200000000     0          
H3       H      0.180900000000     0.569100000000     0.891900000000     0          
N1       N      0.179300000000     0.570700000000     0.843000000000     0          
C7       C      0.136100000000     0.613900000000     0.813000000000     0          
H4       H      0.144900000000     0.605100000000     0.791600000000     0          
C8       C      0.147500000000     0.602500000000     0.841600000000     0          
C9       C      0.138180000000     0.611820000000     0.876900000000     0          
H5       H      0.148100000000     0.601900000000     0.897200000000     0          
O3       O      0.032540000000     0.075180000000     0.126200000000     0          
C3       C      0.980100000000     0.026200000000     0.121400000000     0          
H1       H      0.973100000000     0.049900000000     0.119600000000     0          
C4       C      0.956400000000     0.999500000000     0.121200000000     0          
H2       H      0.932500000000     0.004700000000     0.124600000000     0          
O3       O      0.424820000000     0.782540000000     0.376200000000     0          
C3       C      0.473800000000     0.730100000000     0.371400000000     0          
H1       H      0.450100000000     0.723100000000     0.369600000000     0          
C4       C      0.500500000000     0.706400000000     0.371200000000     0          
H2       H      0.495300000000     0.682500000000     0.374600000000     0          
O3       O      0.623800000000     0.217460000000     0.575180000000     0          
C3       C      0.628600000000     0.269900000000     0.526200000000     0          
H1       H      0.630400000000     0.276900000000     0.549900000000     0          
C4       C      0.628800000000     0.293600000000     0.499500000000     0          
H2       H      0.625400000000     0.317500000000     0.504700000000     0          
O3       O      0.282540000000     0.373800000000     0.825180000000     0          
C3       C      0.230100000000     0.378600000000     0.776200000000     0          
H1       H      0.223100000000     0.380400000000     0.799900000000     0          
C4       C      0.206400000000     0.378800000000     0.749500000000     0          
H2       H      0.182500000000     0.375400000000     0.754700000000     0          
Zr1      Zr     0.310850000000     0.375000000000     0.875000000000     0          
C1       C      0.293900000000     0.379900000000     0.793900000000     0          
C2       C      0.266300000000     0.375400000000     0.766300000000     0          
C5       C      0.215900000000     0.383600000000     0.715900000000     0          
C6       C      0.189300000000     0.379800000000     0.689300000000     0          
H3       H      0.180900000000     0.358100000000     0.680900000000     0          
N1       N      0.179300000000     0.407000000000     0.679300000000     0          
C7       C      0.136100000000     0.437000000000     0.636100000000     0          
H4       H      0.144900000000     0.458400000000     0.644900000000     0          
C8       C      0.147500000000     0.408400000000     0.647500000000     0          
C9       C      0.138180000000     0.373100000000     0.638180000000     0          
H5       H      0.148100000000     0.352800000000     0.648100000000     0          
O3       O      0.126200000000     0.032540000000     0.075180000000     0          
C3       C      0.121400000000     0.980100000000     0.026200000000     0          
H1       H      0.119600000000     0.973100000000     0.049900000000     0          
C4       C      0.121200000000     0.956400000000     0.999500000000     0          
H2       H      0.124600000000     0.932500000000     0.004700000000     0          
C1       C      0.120100000000     0.043900000000     0.043900000000     0          
C2       C      0.124600000000     0.016300000000     0.016300000000     0          
C5       C      0.116400000000     0.965900000000     0.965900000000     0          
C6       C      0.120200000000     0.939300000000     0.939300000000     0          
H3       H      0.141900000000     0.930900000000     0.930900000000     0          
N1       N      0.093000000000     0.929300000000     0.929300000000     0          
C7       C      0.063000000000     0.886100000000     0.886100000000     0          
H4       H      0.041600000000     0.894900000000     0.894900000000     0          
C8       C      0.091600000000     0.897500000000     0.897500000000     0          
C9       C      0.126900000000     0.888180000000     0.888180000000     0          
H5       H      0.147200000000     0.898100000000     0.898100000000     0          
O3       O      0.467460000000     0.876200000000     0.325180000000     0          
C3       C      0.519900000000     0.871400000000     0.276200000000     0          
H1       H      0.526900000000     0.869600000000     0.299900000000     0          
C4       C      0.543600000000     0.871200000000     0.249500000000     0          
H2       H      0.567500000000     0.874600000000     0.254700000000     0          
C1       C      0.456100000000     0.870100000000     0.293900000000     0          
C2       C      0.483700000000     0.874600000000     0.266300000000     0          
C5       C      0.534100000000     0.866400000000     0.215900000000     0          
C6       C      0.560700000000     0.870200000000     0.189300000000     0          
H3       H      0.569100000000     0.891900000000     0.180900000000     0          
N1       N      0.570700000000     0.843000000000     0.179300000000     0          
C7       C      0.613900000000     0.813000000000     0.136100000000     0          
H4       H      0.605100000000     0.791600000000     0.144900000000     0          
C8       C      0.602500000000     0.841600000000     0.147500000000     0          
C9       C      0.611820000000     0.876900000000     0.138180000000     0          
H5       H      0.601900000000     0.897200000000     0.148100000000     0          
O3       O      0.623800000000     0.032540000000     0.674820000000     0          
C3       C      0.628600000000     0.980100000000     0.723800000000     0          
H1       H      0.630400000000     0.973100000000     0.700100000000     0          
C4       C      0.628800000000     0.956400000000     0.750500000000     0          
H2       H      0.625400000000     0.932500000000     0.745300000000     0          
C1       C      0.629900000000     0.043900000000     0.706100000000     0          
C2       C      0.625400000000     0.016300000000     0.733700000000     0          
C5       C      0.633600000000     0.965900000000     0.784100000000     0          
C6       C      0.629800000000     0.939300000000     0.810700000000     0          
H3       H      0.608100000000     0.930900000000     0.819100000000     0          
N1       N      0.657000000000     0.929300000000     0.820700000000     0          
C7       C      0.687000000000     0.886100000000     0.863900000000     0          
H4       H      0.708400000000     0.894900000000     0.855100000000     0          
C8       C      0.658400000000     0.897500000000     0.852500000000     0          
C9       C      0.623100000000     0.888180000000     0.861820000000     0          
H5       H      0.602800000000     0.898100000000     0.851900000000     0          
O3       O      0.467460000000     0.373800000000     0.924820000000     0          
C3       C      0.519900000000     0.378600000000     0.973800000000     0          
H1       H      0.526900000000     0.380400000000     0.950100000000     0          
C4       C      0.543600000000     0.378800000000     0.000500000000     0          
H2       H      0.567500000000     0.375400000000     0.995300000000     0          
O3       O      0.126200000000     0.217460000000     0.174820000000     0          
C3       C      0.121400000000     0.269900000000     0.223800000000     0          
H1       H      0.119600000000     0.276900000000     0.200100000000     0          
C4       C      0.121200000000     0.293600000000     0.250500000000     0          
H2       H      0.124600000000     0.317500000000     0.245300000000     0          
C1       C      0.120100000000     0.206100000000     0.206100000000     0          
C2       C      0.124600000000     0.233700000000     0.233700000000     0          
C5       C      0.116400000000     0.284100000000     0.284100000000     0          
C6       C      0.120200000000     0.310700000000     0.310700000000     0          
H3       H      0.141900000000     0.319100000000     0.319100000000     0          
N1       N      0.093000000000     0.320700000000     0.320700000000     0          
C7       C      0.063000000000     0.363900000000     0.363900000000     0          
H4       H      0.041600000000     0.355100000000     0.355100000000     0          
C8       C      0.091600000000     0.352500000000     0.352500000000     0          
C9       C      0.126900000000     0.361820000000     0.361820000000     0          
H5       H      0.147200000000     0.351900000000     0.351900000000     0          
O3       O      0.282540000000     0.876200000000     0.424820000000     0          
C3       C      0.230100000000     0.871400000000     0.473800000000     0          
H1       H      0.223100000000     0.869600000000     0.450100000000     0          
C4       C      0.206400000000     0.871200000000     0.500500000000     0          
H2       H      0.182500000000     0.874600000000     0.495300000000     0          
Zr1      Zr     0.310850000000     0.875000000000     0.375000000000     0          
C1       C      0.293900000000     0.870100000000     0.456100000000     0          
C2       C      0.266300000000     0.874600000000     0.483700000000     0          
C5       C      0.215900000000     0.866400000000     0.534100000000     0          
C6       C      0.189300000000     0.870200000000     0.560700000000     0          
H3       H      0.180900000000     0.891900000000     0.569100000000     0          
N1       N      0.179300000000     0.843000000000     0.570700000000     0          
C7       C      0.136100000000     0.813000000000     0.613900000000     0          
H4       H      0.144900000000     0.791600000000     0.605100000000     0          
C8       C      0.147500000000     0.841600000000     0.602500000000     0          
C9       C      0.138180000000     0.876900000000     0.611820000000     0          
H5       H      0.148100000000     0.897200000000     0.601900000000     0          
O3       O      0.575180000000     0.123800000000     0.717460000000     0          
C3       C      0.526200000000     0.128600000000     0.769900000000     0          
H1       H      0.549900000000     0.130400000000     0.776900000000     0          
C4       C      0.499500000000     0.128800000000     0.793600000000     0          
H2       H      0.504700000000     0.125400000000     0.817500000000     0          
C1       C      0.543900000000     0.129900000000     0.706100000000     0          
C2       C      0.516300000000     0.125400000000     0.733700000000     0          
C5       C      0.465900000000     0.133600000000     0.784100000000     0          
C6       C      0.439300000000     0.129800000000     0.810700000000     0          
H3       H      0.430900000000     0.108100000000     0.819100000000     0          
N1       N      0.429300000000     0.157000000000     0.820700000000     0          
C7       C      0.386100000000     0.187000000000     0.863900000000     0          
H4       H      0.394900000000     0.208400000000     0.855100000000     0          
C8       C      0.397500000000     0.158400000000     0.852500000000     0          
C9       C      0.388180000000     0.123100000000     0.861820000000     0          
H5       H      0.398100000000     0.102800000000     0.851900000000     0          
O3       O      0.075180000000     0.626200000000     0.532540000000     0          
C3       C      0.026200000000     0.621400000000     0.480100000000     0          
H1       H      0.049900000000     0.619600000000     0.473100000000     0          
C4       C      0.999500000000     0.621200000000     0.456400000000     0          
H2       H      0.004700000000     0.624600000000     0.432500000000     0          
O3       O      0.873800000000     0.825180000000     0.782540000000     0          
C3       C      0.878600000000     0.776200000000     0.730100000000     0          
H1       H      0.880400000000     0.799900000000     0.723100000000     0          
C4       C      0.878800000000     0.749500000000     0.706400000000     0          
H2       H      0.875400000000     0.754700000000     0.682500000000     0          
C1       C      0.879900000000     0.793900000000     0.793900000000     0          
C2       C      0.875400000000     0.766300000000     0.766300000000     0          
C5       C      0.883600000000     0.715900000000     0.715900000000     0          
C6       C      0.879800000000     0.689300000000     0.689300000000     0          
H3       H      0.858100000000     0.680900000000     0.680900000000     0          
N1       N      0.907000000000     0.679300000000     0.679300000000     0          
C7       C      0.937000000000     0.636100000000     0.636100000000     0          
H4       H      0.958400000000     0.644900000000     0.644900000000     0          
C8       C      0.908400000000     0.647500000000     0.647500000000     0          
C9       C      0.873100000000     0.638180000000     0.638180000000     0          
H5       H      0.852800000000     0.648100000000     0.648100000000     0          
O3       O      0.674820000000     0.623800000000     0.032540000000     0          
C3       C      0.723800000000     0.628600000000     0.980100000000     0          
H1       H      0.700100000000     0.630400000000     0.973100000000     0          
C4       C      0.750500000000     0.628800000000     0.956400000000     0          
H2       H      0.745300000000     0.625400000000     0.932500000000     0          
C1       C      0.706100000000     0.629900000000     0.043900000000     0          
C2       C      0.733700000000     0.625400000000     0.016300000000     0          
C5       C      0.784100000000     0.633600000000     0.965900000000     0          
C6       C      0.810700000000     0.629800000000     0.939300000000     0          
H3       H      0.819100000000     0.608100000000     0.930900000000     0          
N1       N      0.820700000000     0.657000000000     0.929300000000     0          
C7       C      0.863900000000     0.687000000000     0.886100000000     0          
H4       H      0.855100000000     0.708400000000     0.894900000000     0          
C8       C      0.852500000000     0.658400000000     0.897500000000     0          
C9       C      0.861820000000     0.623100000000     0.888180000000     0          
H5       H      0.851900000000     0.602800000000     0.898100000000     0          
O3       O      0.376200000000     0.424820000000     0.782540000000     0          
C3       C      0.371400000000     0.473800000000     0.730100000000     0          
H1       H      0.369600000000     0.450100000000     0.723100000000     0          
C4       C      0.371200000000     0.500500000000     0.706400000000     0          
H2       H      0.374600000000     0.495300000000     0.682500000000     0          
C1       C      0.370100000000     0.456100000000     0.793900000000     0          
C2       C      0.374600000000     0.483700000000     0.766300000000     0          
C5       C      0.366400000000     0.534100000000     0.715900000000     0          
C6       C      0.370200000000     0.560700000000     0.689300000000     0          
H3       H      0.391900000000     0.569100000000     0.680900000000     0          
N1       N      0.343000000000     0.570700000000     0.679300000000     0          
C7       C      0.313000000000     0.613900000000     0.636100000000     0          
H4       H      0.291600000000     0.605100000000     0.644900000000     0          
C8       C      0.341600000000     0.602500000000     0.647500000000     0          
C9       C      0.376900000000     0.611820000000     0.638180000000     0          
H5       H      0.397200000000     0.601900000000     0.648100000000     0          
O3       O      0.674820000000     0.126200000000     0.717460000000     0          
C3       C      0.723800000000     0.121400000000     0.769900000000     0          
H1       H      0.700100000000     0.119600000000     0.776900000000     0          
C4       C      0.750500000000     0.121200000000     0.793600000000     0          
H2       H      0.745300000000     0.124600000000     0.817500000000     0          
C1       C      0.706100000000     0.120100000000     0.706100000000     0          
C2       C      0.733700000000     0.124600000000     0.733700000000     0          
C5       C      0.784100000000     0.116400000000     0.784100000000     0          
C6       C      0.810700000000     0.120200000000     0.810700000000     0          
H3       H      0.819100000000     0.141900000000     0.819100000000     0          
N1       N      0.820700000000     0.093000000000     0.820700000000     0          
C7       C      0.863900000000     0.063000000000     0.863900000000     0          
H4       H      0.855100000000     0.041600000000     0.855100000000     0          
C8       C      0.852500000000     0.091600000000     0.852500000000     0          
C9       C      0.861820000000     0.126900000000     0.861820000000     0          
H5       H      0.851900000000     0.147200000000     0.851900000000     0          
O3       O      0.873800000000     0.924820000000     0.967460000000     0          
C3       C      0.878600000000     0.973800000000     0.019900000000     0          
H1       H      0.880400000000     0.950100000000     0.026900000000     0          
C4       C      0.878800000000     0.000500000000     0.043600000000     0          
H2       H      0.875400000000     0.995300000000     0.067500000000     0          
C1       C      0.879900000000     0.956100000000     0.956100000000     0          
C2       C      0.875400000000     0.983700000000     0.983700000000     0          
C5       C      0.883600000000     0.034100000000     0.034100000000     0          
C6       C      0.879800000000     0.060700000000     0.060700000000     0          
H3       H      0.858100000000     0.069100000000     0.069100000000     0          
N1       N      0.907000000000     0.070700000000     0.070700000000     0          
C7       C      0.937000000000     0.113900000000     0.113900000000     0          
H4       H      0.958400000000     0.105100000000     0.105100000000     0          
C8       C      0.908400000000     0.102500000000     0.102500000000     0          
C9       C      0.873100000000     0.111820000000     0.111820000000     0          
H5       H      0.852800000000     0.101900000000     0.101900000000     0          
O3       O      0.876200000000     0.325180000000     0.467460000000     0          
C3       C      0.871400000000     0.276200000000     0.519900000000     0          
H1       H      0.869600000000     0.299900000000     0.526900000000     0          
C4       C      0.871200000000     0.249500000000     0.543600000000     0          
H2       H      0.874600000000     0.254700000000     0.567500000000     0          
O3       O      0.282540000000     0.924820000000     0.376200000000     0          
C3       C      0.230100000000     0.973800000000     0.371400000000     0          
H1       H      0.223100000000     0.950100000000     0.369600000000     0          
C4       C      0.206400000000     0.000500000000     0.371200000000     0          
H2       H      0.182500000000     0.995300000000     0.374600000000     0          
C1       C      0.293900000000     0.956100000000     0.370100000000     0          
C2       C      0.266300000000     0.983700000000     0.374600000000     0          
C5       C      0.215900000000     0.034100000000     0.366400000000     0          
C6       C      0.189300000000     0.060700000000     0.370200000000     0          
H3       H      0.180900000000     0.069100000000     0.391900000000     0          
N1       N      0.179300000000     0.070700000000     0.343000000000     0          
C7       C      0.136100000000     0.113900000000     0.313000000000     0          
H4       H      0.144900000000     0.105100000000     0.291600000000     0          
C8       C      0.147500000000     0.102500000000     0.341600000000     0          
C9       C      0.138180000000     0.111820000000     0.376900000000     0          
H5       H      0.148100000000     0.101900000000     0.397200000000     0          
O3       O      0.575180000000     0.532540000000     0.126200000000     0          
C3       C      0.526200000000     0.480100000000     0.121400000000     0          
H1       H      0.549900000000     0.473100000000     0.119600000000     0          
C4       C      0.499500000000     0.456400000000     0.121200000000     0          
H2       H      0.504700000000     0.432500000000     0.124600000000     0          
O3       O      0.967460000000     0.825180000000     0.876200000000     0          
C3       C      0.019900000000     0.776200000000     0.871400000000     0          
H1       H      0.026900000000     0.799900000000     0.869600000000     0          
C4       C      0.043600000000     0.749500000000     0.871200000000     0          
H2       H      0.067500000000     0.754700000000     0.874600000000     0          
O3       O      0.674820000000     0.217460000000     0.626200000000     0          
C3       C      0.723800000000     0.269900000000     0.621400000000     0          
H1       H      0.700100000000     0.276900000000     0.619600000000     0          
C4       C      0.750500000000     0.293600000000     0.621200000000     0          
H2       H      0.745300000000     0.317500000000     0.624600000000     0          
O3       O      0.282540000000     0.825180000000     0.373800000000     0          
C3       C      0.230100000000     0.776200000000     0.378600000000     0          
H1       H      0.223100000000     0.799900000000     0.380400000000     0          
C4       C      0.206400000000     0.749500000000     0.378800000000     0          
H2       H      0.182500000000     0.754700000000     0.375400000000     0          
O3       O      0.674820000000     0.532540000000     0.123800000000     0          
C3       C      0.723800000000     0.480100000000     0.128600000000     0          
H1       H      0.700100000000     0.473100000000     0.130400000000     0          
C4       C      0.750500000000     0.456400000000     0.128800000000     0          
H2       H      0.745300000000     0.432500000000     0.125400000000     0          
C1       C      0.706100000000     0.543900000000     0.129900000000     0          
C2       C      0.733700000000     0.516300000000     0.125400000000     0          
C5       C      0.784100000000     0.465900000000     0.133600000000     0          
C6       C      0.810700000000     0.439300000000     0.129800000000     0          
H3       H      0.819100000000     0.430900000000     0.108100000000     0          
N1       N      0.820700000000     0.429300000000     0.157000000000     0          
C7       C      0.863900000000     0.386100000000     0.187000000000     0          
H4       H      0.855100000000     0.394900000000     0.208400000000     0          
C8       C      0.852500000000     0.397500000000     0.158400000000     0          
C9       C      0.861820000000     0.388180000000     0.123100000000     0          
H5       H      0.851900000000     0.398100000000     0.102800000000     0          
O3       O      0.967460000000     0.924820000000     0.873800000000     0          
C3       C      0.019900000000     0.973800000000     0.878600000000     0          
H1       H      0.026900000000     0.950100000000     0.880400000000     0          
C4       C      0.043600000000     0.000500000000     0.878800000000     0          
H2       H      0.067500000000     0.995300000000     0.875400000000     0          
O3       O      0.575180000000     0.217460000000     0.623800000000     0          
C3       C      0.526200000000     0.269900000000     0.628600000000     0          
H1       H      0.549900000000     0.276900000000     0.630400000000     0          
C4       C      0.499500000000     0.293600000000     0.628800000000     0          
H2       H      0.504700000000     0.317500000000     0.625400000000     0          
O3       O      0.376200000000     0.782540000000     0.424820000000     0          
C3       C      0.371400000000     0.730100000000     0.473800000000     0          
H1       H      0.369600000000     0.723100000000     0.450100000000     0          
C4       C      0.371200000000     0.706400000000     0.500500000000     0          
H2       H      0.374600000000     0.682500000000     0.495300000000     0          
O3       O      0.717460000000     0.626200000000     0.174820000000     0          
C3       C      0.769900000000     0.621400000000     0.223800000000     0          
H1       H      0.776900000000     0.619600000000     0.200100000000     0          
C4       C      0.793600000000     0.621200000000     0.250500000000     0          
H2       H      0.817500000000     0.624600000000     0.245300000000     0          
Zr1      Zr     0.689150000000     0.625000000000     0.125000000000     0          
C1       C      0.706100000000     0.620100000000     0.206100000000     0          
C2       C      0.733700000000     0.624600000000     0.233700000000     0          
C5       C      0.784100000000     0.616400000000     0.284100000000     0          
C6       C      0.810700000000     0.620200000000     0.310700000000     0          
H3       H      0.819100000000     0.641900000000     0.319100000000     0          
N1       N      0.820700000000     0.593000000000     0.320700000000     0          
C7       C      0.863900000000     0.563000000000     0.363900000000     0          
H4       H      0.855100000000     0.541600000000     0.355100000000     0          
C8       C      0.852500000000     0.591600000000     0.352500000000     0          
C9       C      0.861820000000     0.626900000000     0.361820000000     0          
H5       H      0.851900000000     0.647200000000     0.351900000000     0          
O3       O      0.873800000000     0.967460000000     0.924820000000     0          
C3       C      0.878600000000     0.019900000000     0.973800000000     0          
H1       H      0.880400000000     0.026900000000     0.950100000000     0          
C4       C      0.878800000000     0.043600000000     0.000500000000     0          
H2       H      0.875400000000     0.067500000000     0.995300000000     0          
O3       O      0.532540000000     0.123800000000     0.674820000000     0          
C3       C      0.480100000000     0.128600000000     0.723800000000     0          
H1       H      0.473100000000     0.130400000000     0.700100000000     0          
C4       C      0.456400000000     0.128800000000     0.750500000000     0          
H2       H      0.432500000000     0.125400000000     0.745300000000     0          
O3       O      0.376200000000     0.967460000000     0.325180000000     0          
C3       C      0.371400000000     0.019900000000     0.276200000000     0          
H1       H      0.369600000000     0.026900000000     0.299900000000     0          
C4       C      0.371200000000     0.043600000000     0.249500000000     0          
H2       H      0.374600000000     0.067500000000     0.254700000000     0          
C1       C      0.370100000000     0.956100000000     0.293900000000     0          
C2       C      0.374600000000     0.983700000000     0.266300000000     0          
C5       C      0.366400000000     0.034100000000     0.215900000000     0          
C6       C      0.370200000000     0.060700000000     0.189300000000     0          
H3       H      0.391900000000     0.069100000000     0.180900000000     0          
N1       N      0.343000000000     0.070700000000     0.179300000000     0          
C7       C      0.313000000000     0.113900000000     0.136100000000     0          
H4       H      0.291600000000     0.105100000000     0.144900000000     0          
C8       C      0.341600000000     0.102500000000     0.147500000000     0          
C9       C      0.376900000000     0.111820000000     0.138180000000     0          
H5       H      0.397200000000     0.101900000000     0.148100000000     0          
O3       O      0.532540000000     0.626200000000     0.075180000000     0          
C3       C      0.480100000000     0.621400000000     0.026200000000     0          
H1       H      0.473100000000     0.619600000000     0.049900000000     0          
C4       C      0.456400000000     0.621200000000     0.999500000000     0          
H2       H      0.432500000000     0.624600000000     0.004700000000     0          
O3       O      0.873800000000     0.782540000000     0.825180000000     0          
C3       C      0.878600000000     0.730100000000     0.776200000000     0          
H1       H      0.880400000000     0.723100000000     0.799900000000     0          
C4       C      0.878800000000     0.706400000000     0.749500000000     0          
H2       H      0.875400000000     0.682500000000     0.754700000000     0          
O3       O      0.717460000000     0.123800000000     0.575180000000     0          
C3       C      0.769900000000     0.128600000000     0.526200000000     0          
H1       H      0.776900000000     0.130400000000     0.549900000000     0          
C4       C      0.793600000000     0.128800000000     0.499500000000     0          
H2       H      0.817500000000     0.125400000000     0.504700000000     0          
C1       C      0.706100000000     0.129900000000     0.543900000000     0          
C2       C      0.733700000000     0.125400000000     0.516300000000     0          
C5       C      0.784100000000     0.133600000000     0.465900000000     0          
C6       C      0.810700000000     0.129800000000     0.439300000000     0          
H3       H      0.819100000000     0.108100000000     0.430900000000     0          
N1       N      0.820700000000     0.157000000000     0.429300000000     0          
C7       C      0.863900000000     0.187000000000     0.386100000000     0          
H4       H      0.855100000000     0.208400000000     0.394900000000     0          
C8       C      0.852500000000     0.158400000000     0.397500000000     0          
C9       C      0.861820000000     0.123100000000     0.388180000000     0          
H5       H      0.851900000000     0.102800000000     0.398100000000     0          
O3       O      0.424820000000     0.876200000000     0.282540000000     0          
C3       C      0.473800000000     0.871400000000     0.230100000000     0          
H1       H      0.450100000000     0.869600000000     0.223100000000     0          
C4       C      0.500500000000     0.871200000000     0.206400000000     0          
H2       H      0.495300000000     0.874600000000     0.182500000000     0          
O3       O      0.924820000000     0.373800000000     0.467460000000     0          
C3       C      0.973800000000     0.378600000000     0.519900000000     0          
H1       H      0.950100000000     0.380400000000     0.526900000000     0          
C4       C      0.000500000000     0.378800000000     0.543600000000     0          
H2       H      0.995300000000     0.375400000000     0.567500000000     0          
O3       O      0.126200000000     0.174820000000     0.217460000000     0          
C3       C      0.121400000000     0.223800000000     0.269900000000     0          
H1       H      0.119600000000     0.200100000000     0.276900000000     0          
C4       C      0.121200000000     0.250500000000     0.293600000000     0          
H2       H      0.124600000000     0.245300000000     0.317500000000     0          
O3       O      0.325180000000     0.376200000000     0.967460000000     0          
C3       C      0.276200000000     0.371400000000     0.019900000000     0          
H1       H      0.299900000000     0.369600000000     0.026900000000     0          
C4       C      0.249500000000     0.371200000000     0.043600000000     0          
H2       H      0.254700000000     0.374600000000     0.067500000000     0          
C1       C      0.293900000000     0.370100000000     0.956100000000     0          
C2       C      0.266300000000     0.374600000000     0.983700000000     0          
C5       C      0.215900000000     0.366400000000     0.034100000000     0          
C6       C      0.189300000000     0.370200000000     0.060700000000     0          
H3       H      0.180900000000     0.391900000000     0.069100000000     0          
N1       N      0.179300000000     0.343000000000     0.070700000000     0          
C7       C      0.136100000000     0.313000000000     0.113900000000     0          
H4       H      0.144900000000     0.291600000000     0.105100000000     0          
C8       C      0.147500000000     0.341600000000     0.102500000000     0          
C9       C      0.138180000000     0.376900000000     0.111820000000     0          
H5       H      0.148100000000     0.397200000000     0.101900000000     0          
O3       O      0.623800000000     0.575180000000     0.217460000000     0          
C3       C      0.628600000000     0.526200000000     0.269900000000     0          
H1       H      0.630400000000     0.549900000000     0.276900000000     0          
C4       C      0.628800000000     0.499500000000     0.293600000000     0          
H2       H      0.625400000000     0.504700000000     0.317500000000     0          
C1       C      0.629900000000     0.543900000000     0.206100000000     0          
C2       C      0.625400000000     0.516300000000     0.233700000000     0          
C5       C      0.633600000000     0.465900000000     0.284100000000     0          
C6       C      0.629800000000     0.439300000000     0.310700000000     0          
H3       H      0.608100000000     0.430900000000     0.319100000000     0          
N1       N      0.657000000000     0.429300000000     0.320700000000     0          
C7       C      0.687000000000     0.386100000000     0.363900000000     0          
H4       H      0.708400000000     0.394900000000     0.355100000000     0          
C8       C      0.658400000000     0.397500000000     0.352500000000     0          
C9       C      0.623100000000     0.388180000000     0.361820000000     0          
H5       H      0.602800000000     0.398100000000     0.351900000000     0          
O3       O      0.325180000000     0.873800000000     0.282540000000     0          
C3       C      0.276200000000     0.878600000000     0.230100000000     0          
H1       H      0.299900000000     0.880400000000     0.223100000000     0          
C4       C      0.249500000000     0.878800000000     0.206400000000     0          
H2       H      0.254700000000     0.875400000000     0.182500000000     0          
C1       C      0.293900000000     0.879900000000     0.293900000000     0          
C2       C      0.266300000000     0.875400000000     0.266300000000     0          
C5       C      0.215900000000     0.883600000000     0.215900000000     0          
C6       C      0.189300000000     0.879800000000     0.189300000000     0          
H3       H      0.180900000000     0.858100000000     0.180900000000     0          
N1       N      0.179300000000     0.907000000000     0.179300000000     0          
C7       C      0.136100000000     0.937000000000     0.136100000000     0          
H4       H      0.144900000000     0.958400000000     0.144900000000     0          
C8       C      0.147500000000     0.908400000000     0.147500000000     0          
C9       C      0.138180000000     0.873100000000     0.138180000000     0          
H5       H      0.148100000000     0.852800000000     0.148100000000     0          
O3       O      0.126200000000     0.075180000000     0.032540000000     0          
C3       C      0.121400000000     0.026200000000     0.980100000000     0          
H1       H      0.119600000000     0.049900000000     0.973100000000     0          
C4       C      0.121200000000     0.999500000000     0.956400000000     0          
H2       H      0.124600000000     0.004700000000     0.932500000000     0          
O3       O      0.123800000000     0.674820000000     0.532540000000     0          
C3       C      0.128600000000     0.723800000000     0.480100000000     0          
H1       H      0.130400000000     0.700100000000     0.473100000000     0          
C4       C      0.128800000000     0.750500000000     0.456400000000     0          
H2       H      0.125400000000     0.745300000000     0.432500000000     0          
O3       O      0.717460000000     0.575180000000     0.123800000000     0          
C3       C      0.769900000000     0.526200000000     0.128600000000     0          
H1       H      0.776900000000     0.549900000000     0.130400000000     0          
C4       C      0.793600000000     0.499500000000     0.128800000000     0          
H2       H      0.817500000000     0.504700000000     0.125400000000     0          
O3       O      0.424820000000     0.967460000000     0.373800000000     0          
C3       C      0.473800000000     0.019900000000     0.378600000000     0          
H1       H      0.450100000000     0.026900000000     0.380400000000     0          
C4       C      0.500500000000     0.043600000000     0.378800000000     0          
H2       H      0.495300000000     0.067500000000     0.375400000000     0          
O3       O      0.032540000000     0.674820000000     0.623800000000     0          
C3       C      0.980100000000     0.723800000000     0.628600000000     0          
H1       H      0.973100000000     0.700100000000     0.630400000000     0          
C4       C      0.956400000000     0.750500000000     0.628800000000     0          
H2       H      0.932500000000     0.745300000000     0.625400000000     0          
O3       O      0.325180000000     0.282540000000     0.873800000000     0          
C3       C      0.276200000000     0.230100000000     0.878600000000     0          
H1       H      0.299900000000     0.223100000000     0.880400000000     0          
C4       C      0.249500000000     0.206400000000     0.878800000000     0          
H2       H      0.254700000000     0.182500000000     0.875400000000     0          
C1       C      0.293900000000     0.293900000000     0.879900000000     0          
C2       C      0.266300000000     0.266300000000     0.875400000000     0          
C5       C      0.215900000000     0.215900000000     0.883600000000     0          
C6       C      0.189300000000     0.189300000000     0.879800000000     0          
H3       H      0.180900000000     0.180900000000     0.858100000000     0          
N1       N      0.179300000000     0.179300000000     0.907000000000     0          
C7       C      0.136100000000     0.136100000000     0.937000000000     0          
H4       H      0.144900000000     0.144900000000     0.958400000000     0          
C8       C      0.147500000000     0.147500000000     0.908400000000     0          
C9       C      0.138180000000     0.138180000000     0.873100000000     0          
H5       H      0.148100000000     0.148100000000     0.852800000000     0          
O3       O      0.717460000000     0.674820000000     0.126200000000     0          
C3       C      0.769900000000     0.723800000000     0.121400000000     0          
H1       H      0.776900000000     0.700100000000     0.119600000000     0          
C4       C      0.793600000000     0.750500000000     0.121200000000     0          
H2       H      0.817500000000     0.745300000000     0.124600000000     0          
C1       C      0.706100000000     0.706100000000     0.120100000000     0          
C2       C      0.733700000000     0.733700000000     0.124600000000     0          
C5       C      0.784100000000     0.784100000000     0.116400000000     0          
C6       C      0.810700000000     0.810700000000     0.120200000000     0          
H3       H      0.819100000000     0.819100000000     0.141900000000     0          
N1       N      0.820700000000     0.820700000000     0.093000000000     0          
C7       C      0.863900000000     0.863900000000     0.063000000000     0          
H4       H      0.855100000000     0.855100000000     0.041600000000     0          
C8       C      0.852500000000     0.852500000000     0.091600000000     0          
C9       C      0.861820000000     0.861820000000     0.126900000000     0          
H5       H      0.851900000000     0.851900000000     0.147200000000     0          
O3       O      0.325180000000     0.967460000000     0.376200000000     0          
C3       C      0.276200000000     0.019900000000     0.371400000000     0          
H1       H      0.299900000000     0.026900000000     0.369600000000     0          
C4       C      0.249500000000     0.043600000000     0.371200000000     0          
H2       H      0.254700000000     0.067500000000     0.374600000000     0          
O3       O      0.032540000000     0.575180000000     0.626200000000     0          
C3       C      0.980100000000     0.526200000000     0.621400000000     0          
H1       H      0.973100000000     0.549900000000     0.619600000000     0          
C4       C      0.956400000000     0.499500000000     0.621200000000     0          
H2       H      0.932500000000     0.504700000000     0.624600000000     0          
O3       O      0.424820000000     0.282540000000     0.876200000000     0          
C3       C      0.473800000000     0.230100000000     0.871400000000     0          
H1       H      0.450100000000     0.223100000000     0.869600000000     0          
C4       C      0.500500000000     0.206400000000     0.871200000000     0          
H2       H      0.495300000000     0.182500000000     0.874600000000     0          
O3       O      0.623800000000     0.717460000000     0.075180000000     0          
C3       C      0.628600000000     0.769900000000     0.026200000000     0          
H1       H      0.630400000000     0.776900000000     0.049900000000     0          
C4       C      0.628800000000     0.793600000000     0.999500000000     0          
H2       H      0.625400000000     0.817500000000     0.004700000000     0          
O3       O      0.282540000000     0.873800000000     0.325180000000     0          
C3       C      0.230100000000     0.878600000000     0.276200000000     0          
H1       H      0.223100000000     0.880400000000     0.299900000000     0          
C4       C      0.206400000000     0.878800000000     0.249500000000     0          
H2       H      0.182500000000     0.875400000000     0.254700000000     0          
O3       O      0.126200000000     0.532540000000     0.575180000000     0          
C3       C      0.121400000000     0.480100000000     0.526200000000     0          
H1       H      0.119600000000     0.473100000000     0.549900000000     0          
C4       C      0.121200000000     0.456400000000     0.499500000000     0          
H2       H      0.124600000000     0.432500000000     0.504700000000     0          
C1       C      0.120100000000     0.543900000000     0.543900000000     0          
C2       C      0.124600000000     0.516300000000     0.516300000000     0          
C5       C      0.116400000000     0.465900000000     0.465900000000     0          
C6       C      0.120200000000     0.439300000000     0.439300000000     0          
H3       H      0.141900000000     0.430900000000     0.430900000000     0          
N1       N      0.093000000000     0.429300000000     0.429300000000     0          
C7       C      0.063000000000     0.386100000000     0.386100000000     0          
H4       H      0.041600000000     0.394900000000     0.394900000000     0          
C8       C      0.091600000000     0.397500000000     0.397500000000     0          
C9       C      0.126900000000     0.388180000000     0.388180000000     0          
H5       H      0.147200000000     0.398100000000     0.398100000000     0          
O3       O      0.467460000000     0.376200000000     0.825180000000     0          
C3       C      0.519900000000     0.371400000000     0.776200000000     0          
H1       H      0.526900000000     0.369600000000     0.799900000000     0          
C4       C      0.543600000000     0.371200000000     0.749500000000     0          
H2       H      0.567500000000     0.374600000000     0.754700000000     0          
C1       C      0.456100000000     0.370100000000     0.793900000000     0          
C2       C      0.483700000000     0.374600000000     0.766300000000     0          
C5       C      0.534100000000     0.366400000000     0.715900000000     0          
C6       C      0.560700000000     0.370200000000     0.689300000000     0          
H3       H      0.569100000000     0.391900000000     0.680900000000     0          
N1       N      0.570700000000     0.343000000000     0.679300000000     0          
C7       C      0.613900000000     0.313000000000     0.636100000000     0          
H4       H      0.605100000000     0.291600000000     0.644900000000     0          
C8       C      0.602500000000     0.341600000000     0.647500000000     0          
C9       C      0.611820000000     0.376900000000     0.638180000000     0          
H5       H      0.601900000000     0.397200000000     0.648100000000     0          
O3       O      0.623800000000     0.532540000000     0.174820000000     0          
C3       C      0.628600000000     0.480100000000     0.223800000000     0          
H1       H      0.630400000000     0.473100000000     0.200100000000     0          
C4       C      0.628800000000     0.456400000000     0.250500000000     0          
H2       H      0.625400000000     0.432500000000     0.245300000000     0          
O3       O      0.467460000000     0.873800000000     0.424820000000     0          
C3       C      0.519900000000     0.878600000000     0.473800000000     0          
H1       H      0.526900000000     0.880400000000     0.450100000000     0          
C4       C      0.543600000000     0.878800000000     0.500500000000     0          
H2       H      0.567500000000     0.875400000000     0.495300000000     0          
O3       O      0.126200000000     0.717460000000     0.674820000000     0          
C3       C      0.121400000000     0.769900000000     0.723800000000     0          
H1       H      0.119600000000     0.776900000000     0.700100000000     0          
C4       C      0.121200000000     0.793600000000     0.750500000000     0          
H2       H      0.124600000000     0.817500000000     0.745300000000     0          
C1       C      0.120100000000     0.706100000000     0.706100000000     0          
C2       C      0.124600000000     0.733700000000     0.733700000000     0          
C5       C      0.116400000000     0.784100000000     0.784100000000     0          
C6       C      0.120200000000     0.810700000000     0.810700000000     0          
H3       H      0.141900000000     0.819100000000     0.819100000000     0          
N1       N      0.093000000000     0.820700000000     0.820700000000     0          
C7       C      0.063000000000     0.863900000000     0.863900000000     0          
H4       H      0.041600000000     0.855100000000     0.855100000000     0          
C8       C      0.091600000000     0.852500000000     0.852500000000     0          
C9       C      0.126900000000     0.861820000000     0.861820000000     0          
H5       H      0.147200000000     0.851900000000     0.851900000000     0          
O3       O      0.282540000000     0.376200000000     0.924820000000     0          
C3       C      0.230100000000     0.371400000000     0.973800000000     0          
H1       H      0.223100000000     0.369600000000     0.950100000000     0          
C4       C      0.206400000000     0.371200000000     0.000500000000     0          
H2       H      0.182500000000     0.374600000000     0.995300000000     0          
O3       O      0.575180000000     0.623800000000     0.217460000000     0          
C3       C      0.526200000000     0.628600000000     0.269900000000     0          
H1       H      0.549900000000     0.630400000000     0.276900000000     0          
C4       C      0.499500000000     0.628800000000     0.293600000000     0          
H2       H      0.504700000000     0.625400000000     0.317500000000     0          
C1       C      0.543900000000     0.629900000000     0.206100000000     0          
C2       C      0.516300000000     0.625400000000     0.233700000000     0          
C5       C      0.465900000000     0.633600000000     0.284100000000     0          
C6       C      0.439300000000     0.629800000000     0.310700000000     0          
H3       H      0.430900000000     0.608100000000     0.319100000000     0          
N1       N      0.429300000000     0.657000000000     0.320700000000     0          
C7       C      0.386100000000     0.687000000000     0.363900000000     0          
H4       H      0.394900000000     0.708400000000     0.355100000000     0          
C8       C      0.397500000000     0.658400000000     0.352500000000     0          
C9       C      0.388180000000     0.623100000000     0.361820000000     0          
H5       H      0.398100000000     0.602800000000     0.351900000000     0          
O3       O      0.075180000000     0.126200000000     0.032540000000     0          
C3       C      0.026200000000     0.121400000000     0.980100000000     0          
H1       H      0.049900000000     0.119600000000     0.973100000000     0          
C4       C      0.999500000000     0.121200000000     0.956400000000     0          
H2       H      0.004700000000     0.124600000000     0.932500000000     0          
O3       O      0.873800000000     0.325180000000     0.282540000000     0          
C3       C      0.878600000000     0.276200000000     0.230100000000     0          
H1       H      0.880400000000     0.299900000000     0.223100000000     0          
C4       C      0.878800000000     0.249500000000     0.206400000000     0          
H2       H      0.875400000000     0.254700000000     0.182500000000     0          
C1       C      0.879900000000     0.293900000000     0.293900000000     0          
C2       C      0.875400000000     0.266300000000     0.266300000000     0          
C5       C      0.883600000000     0.215900000000     0.215900000000     0          
C6       C      0.879800000000     0.189300000000     0.189300000000     0          
H3       H      0.858100000000     0.180900000000     0.180900000000     0          
N1       N      0.907000000000     0.179300000000     0.179300000000     0          
C7       C      0.937000000000     0.136100000000     0.136100000000     0          
H4       H      0.958400000000     0.144900000000     0.144900000000     0          
C8       C      0.908400000000     0.147500000000     0.147500000000     0          
C9       C      0.873100000000     0.138180000000     0.138180000000     0          
H5       H      0.852800000000     0.148100000000     0.148100000000     0          
O3       O      0.674820000000     0.123800000000     0.532540000000     0          
C3       C      0.723800000000     0.128600000000     0.480100000000     0          
H1       H      0.700100000000     0.130400000000     0.473100000000     0          
C4       C      0.750500000000     0.128800000000     0.456400000000     0          
H2       H      0.745300000000     0.125400000000     0.432500000000     0          
O3       O      0.376200000000     0.924820000000     0.282540000000     0          
C3       C      0.371400000000     0.973800000000     0.230100000000     0          
H1       H      0.369600000000     0.950100000000     0.223100000000     0          
C4       C      0.371200000000     0.000500000000     0.206400000000     0          
H2       H      0.374600000000     0.995300000000     0.182500000000     0          
O3       O      0.674820000000     0.626200000000     0.217460000000     0          
C3       C      0.723800000000     0.621400000000     0.269900000000     0          
H1       H      0.700100000000     0.619600000000     0.276900000000     0          
C4       C      0.750500000000     0.621200000000     0.293600000000     0          
H2       H      0.745300000000     0.624600000000     0.317500000000     0          
O3       O      0.873800000000     0.424820000000     0.467460000000     0          
C3       C      0.878600000000     0.473800000000     0.519900000000     0          
H1       H      0.880400000000     0.450100000000     0.526900000000     0          
C4       C      0.878800000000     0.500500000000     0.543600000000     0          
H2       H      0.875400000000     0.495300000000     0.567500000000     0          
C1       C      0.879900000000     0.456100000000     0.456100000000     0          
C2       C      0.875400000000     0.483700000000     0.483700000000     0          
C5       C      0.883600000000     0.534100000000     0.534100000000     0          
C6       C      0.879800000000     0.560700000000     0.560700000000     0          
H3       H      0.858100000000     0.569100000000     0.569100000000     0          
N1       N      0.907000000000     0.570700000000     0.570700000000     0          
C7       C      0.937000000000     0.613900000000     0.613900000000     0          
H4       H      0.958400000000     0.605100000000     0.605100000000     0          
C8       C      0.908400000000     0.602500000000     0.602500000000     0          
C9       C      0.873100000000     0.611820000000     0.611820000000     0          
H5       H      0.852800000000     0.601900000000     0.601900000000     0          
O3       O      0.876200000000     0.825180000000     0.967460000000     0          
C3       C      0.871400000000     0.776200000000     0.019900000000     0          
H1       H      0.869600000000     0.799900000000     0.026900000000     0          
C4       C      0.871200000000     0.749500000000     0.043600000000     0          
H2       H      0.874600000000     0.754700000000     0.067500000000     0          
O3       O      0.282540000000     0.424820000000     0.876200000000     0          
C3       C      0.230100000000     0.473800000000     0.871400000000     0          
H1       H      0.223100000000     0.450100000000     0.869600000000     0          
C4       C      0.206400000000     0.500500000000     0.871200000000     0          
H2       H      0.182500000000     0.495300000000     0.874600000000     0          
O3       O      0.575180000000     0.032540000000     0.626200000000     0          
C3       C      0.526200000000     0.980100000000     0.621400000000     0          
H1       H      0.549900000000     0.973100000000     0.619600000000     0          
C4       C      0.499500000000     0.956400000000     0.621200000000     0          
H2       H      0.504700000000     0.932500000000     0.624600000000     0          
O3       O      0.967460000000     0.325180000000     0.376200000000     0          
C3       C      0.019900000000     0.276200000000     0.371400000000     0          
H1       H      0.026900000000     0.299900000000     0.369600000000     0          
C4       C      0.043600000000     0.249500000000     0.371200000000     0          
H2       H      0.067500000000     0.254700000000     0.374600000000     0          
O3       O      0.674820000000     0.717460000000     0.126200000000     0          
C3       C      0.723800000000     0.769900000000     0.121400000000     0          
H1       H      0.700100000000     0.776900000000     0.119600000000     0          
C4       C      0.750500000000     0.793600000000     0.121200000000     0          
H2       H      0.745300000000     0.817500000000     0.124600000000     0          
O3       O      0.282540000000     0.325180000000     0.873800000000     0          
C3       C      0.230100000000     0.276200000000     0.878600000000     0          
H1       H      0.223100000000     0.299900000000     0.880400000000     0          
C4       C      0.206400000000     0.249500000000     0.878800000000     0          
H2       H      0.182500000000     0.254700000000     0.875400000000     0          
O3       O      0.674820000000     0.032540000000     0.623800000000     0          
C3       C      0.723800000000     0.980100000000     0.628600000000     0          
H1       H      0.700100000000     0.973100000000     0.630400000000     0          
C4       C      0.750500000000     0.956400000000     0.628800000000     0          
H2       H      0.745300000000     0.932500000000     0.625400000000     0          
O3       O      0.967460000000     0.424820000000     0.373800000000     0          
C3       C      0.019900000000     0.473800000000     0.378600000000     0          
H1       H      0.026900000000     0.450100000000     0.380400000000     0          
C4       C      0.043600000000     0.500500000000     0.378800000000     0          
H2       H      0.067500000000     0.495300000000     0.375400000000     0          
O3       O      0.575180000000     0.717460000000     0.123800000000     0          
C3       C      0.526200000000     0.769900000000     0.128600000000     0          
H1       H      0.549900000000     0.776900000000     0.130400000000     0          
C4       C      0.499500000000     0.793600000000     0.128800000000     0          
H2       H      0.504700000000     0.817500000000     0.125400000000     0          
O3       O      0.376200000000     0.282540000000     0.924820000000     0          
C3       C      0.371400000000     0.230100000000     0.973800000000     0          
H1       H      0.369600000000     0.223100000000     0.950100000000     0          
C4       C      0.371200000000     0.206400000000     0.000500000000     0          
H2       H      0.374600000000     0.182500000000     0.995300000000     0          
O3       O      0.717460000000     0.126200000000     0.674820000000     0          
C3       C      0.769900000000     0.121400000000     0.723800000000     0          
H1       H      0.776900000000     0.119600000000     0.700100000000     0          
C4       C      0.793600000000     0.121200000000     0.750500000000     0          
H2       H      0.817500000000     0.124600000000     0.745300000000     0          
O3       O      0.873800000000     0.467460000000     0.424820000000     0          
C3       C      0.878600000000     0.519900000000     0.473800000000     0          
H1       H      0.880400000000     0.526900000000     0.450100000000     0          
C4       C      0.878800000000     0.543600000000     0.500500000000     0          
H2       H      0.875400000000     0.567500000000     0.495300000000     0          
O3       O      0.532540000000     0.623800000000     0.174820000000     0          
C3       C      0.480100000000     0.628600000000     0.223800000000     0          
H1       H      0.473100000000     0.630400000000     0.200100000000     0          
C4       C      0.456400000000     0.628800000000     0.250500000000     0          
H2       H      0.432500000000     0.625400000000     0.245300000000     0          
O3       O      0.376200000000     0.467460000000     0.825180000000     0          
C3       C      0.371400000000     0.519900000000     0.776200000000     0          
H1       H      0.369600000000     0.526900000000     0.799900000000     0          
C4       C      0.371200000000     0.543600000000     0.749500000000     0          
H2       H      0.374600000000     0.567500000000     0.754700000000     0          
O3       O      0.532540000000     0.126200000000     0.575180000000     0          
C3       C      0.480100000000     0.121400000000     0.526200000000     0          
H1       H      0.473100000000     0.119600000000     0.549900000000     0          
C4       C      0.456400000000     0.121200000000     0.499500000000     0          
H2       H      0.432500000000     0.124600000000     0.504700000000     0          
O3       O      0.873800000000     0.282540000000     0.325180000000     0          
C3       C      0.878600000000     0.230100000000     0.276200000000     0          
H1       H      0.880400000000     0.223100000000     0.299900000000     0          
C4       C      0.878800000000     0.206400000000     0.249500000000     0          
H2       H      0.875400000000     0.182500000000     0.254700000000     0          
O3       O      0.717460000000     0.623800000000     0.075180000000     0          
C3       C      0.769900000000     0.628600000000     0.026200000000     0          
H1       H      0.776900000000     0.630400000000     0.049900000000     0          
C4       C      0.793600000000     0.628800000000     0.999500000000     0          
H2       H      0.817500000000     0.625400000000     0.004700000000     0          
O3       O      0.424820000000     0.376200000000     0.782540000000     0          
C3       C      0.473800000000     0.371400000000     0.730100000000     0          
H1       H      0.450100000000     0.369600000000     0.723100000000     0          
C4       C      0.500500000000     0.371200000000     0.706400000000     0          
H2       H      0.495300000000     0.374600000000     0.682500000000     0          
O3       O      0.924820000000     0.873800000000     0.967460000000     0          
C3       C      0.973800000000     0.878600000000     0.019900000000     0          
H1       H      0.950100000000     0.880400000000     0.026900000000     0          
C4       C      0.000500000000     0.878800000000     0.043600000000     0          
H2       H      0.995300000000     0.875400000000     0.067500000000     0          
O3       O      0.126200000000     0.674820000000     0.717460000000     0          
C3       C      0.121400000000     0.723800000000     0.769900000000     0          
H1       H      0.119600000000     0.700100000000     0.776900000000     0          
C4       C      0.121200000000     0.750500000000     0.793600000000     0          
H2       H      0.124600000000     0.745300000000     0.817500000000     0          
O3       O      0.325180000000     0.876200000000     0.467460000000     0          
C3       C      0.276200000000     0.871400000000     0.519900000000     0          
H1       H      0.299900000000     0.869600000000     0.526900000000     0          
C4       C      0.249500000000     0.871200000000     0.543600000000     0          
H2       H      0.254700000000     0.874600000000     0.567500000000     0          
O3       O      0.623800000000     0.075180000000     0.717460000000     0          
C3       C      0.628600000000     0.026200000000     0.769900000000     0          
H1       H      0.630400000000     0.049900000000     0.776900000000     0          
C4       C      0.628800000000     0.999500000000     0.793600000000     0          
H2       H      0.625400000000     0.004700000000     0.817500000000     0          
O3       O      0.325180000000     0.373800000000     0.782540000000     0          
C3       C      0.276200000000     0.378600000000     0.730100000000     0          
H1       H      0.299900000000     0.380400000000     0.723100000000     0          
C4       C      0.249500000000     0.378800000000     0.706400000000     0          
H2       H      0.254700000000     0.375400000000     0.682500000000     0          
O3       O      0.126200000000     0.575180000000     0.532540000000     0          
C3       C      0.121400000000     0.526200000000     0.480100000000     0          
H1       H      0.119600000000     0.549900000000     0.473100000000     0          
C4       C      0.121200000000     0.499500000000     0.456400000000     0          
H2       H      0.124600000000     0.504700000000     0.432500000000     0          
O3       O      0.123800000000     0.174820000000     0.032540000000     0          
C3       C      0.128600000000     0.223800000000     0.980100000000     0          
H1       H      0.130400000000     0.200100000000     0.973100000000     0          
C4       C      0.128800000000     0.250500000000     0.956400000000     0          
H2       H      0.125400000000     0.245300000000     0.932500000000     0          


