data_LEGGOW

_audit_creation_method RASPA-1.0
_audit_creation_date 2020-11-2
_audit_author_name 'Rocio Bueno-Perez'

_cell_length_a    42.581
_cell_length_b    25.5048
_cell_length_c    16.8164
_cell_angle_alpha 90
_cell_angle_beta  90
_cell_angle_gamma 90
_cell_volume      18262.9

_symmetry_cell_setting          orthorhombic
_symmetry_space_group_name_Hall 'P 1'
_symmetry_space_group_name_H-M  'P 1'
_symmetry_Int_Tables_number     1

_symmetry_equiv_pos_as_xyz 'x,y,z'

loop_
_atom_site_label
_atom_site_type_symbol
_atom_site_fract_x
_atom_site_fract_y
_atom_site_fract_z
_atom_site_charge
Zr2      Zr     0.458690000000     0.541530000000     0.582700000000     0          
O1       O      0.032210000000     0.144700000000     0.439400000000     0          
O2       O      0.058510000000     0.121000000000     0.548600000000     0          
O3       O      0.408230000000     0.528800000000     0.551400000000     0          
O4       O      0.472900000000     0.592500000000     0.684300000000     0          
O5       O      0.459770000000     0.538400000000     0.456800000000     0          
O7       O      0.437060000000     0.493100000000     0.311900000000     0          
O9       O      0.470600000000     0.588000000000     0.307000000000     0          
C1       C      0.061200000000     0.240600000000     0.432800000000     0          
H1       H      0.049500000000     0.232500000000     0.387700000000     0          
C2       C      0.096200000000     0.302400000000     0.497900000000     0          
C3       C      0.143600000000     0.452000000000     0.500500000000     0          
C4       C      0.066400000000     0.204700000000     0.493100000000     0          
C5       C      0.115700000000     0.446300000000     0.458100000000     0          
H2       H      0.107200000000     0.473700000000     0.428400000000     0          
C6       C      0.113300000000     0.354200000000     0.498200000000     0          
C8       C      0.051200000000     0.152700000000     0.495400000000     0          
C9       C      0.075000000000     0.290300000000     0.444600000000     0          
H3       H      0.068300000000     0.317200000000     0.411200000000     0          
C10      C      0.141900000000     0.360000000000     0.534600000000     0          
H4       H      0.152100000000     0.331200000000     0.556500000000     0          
C11      C      0.155700000000     0.409800000000     0.538500000000     0          
H5       H      0.173900000000     0.414000000000     0.568500000000     0          
C12      C      0.100900000000     0.396900000000     0.462600000000     0          
H6       H      0.081100000000     0.393500000000     0.439400000000     0          
C13      C      0.084600000000     0.219500000000     0.559000000000     0          
H7       H      0.085900000000     0.197200000000     0.602700000000     0          
C16      C      0.242700000000     0.472100000000     0.447200000000     0          
H8       H      0.253300000000     0.455100000000     0.406300000000     0          
F1       F      0.522600000000     0.666400000000     0.800600000000     0          
C21      C      0.210000000000     0.468100000000     0.452500000000     0          
H9       H      0.199700000000     0.442800000000     0.422500000000     0          
C22      C      0.100500000000     0.266100000000     0.559600000000     0          
H10      H      0.114200000000     0.273700000000     0.601100000000     0          
C23      C      0.344800000000     0.464500000000     0.457400000000     0          
H11      H      0.355300000000     0.436800000000     0.433100000000     0          
C24      C      0.310800000000     0.470200000000     0.449700000000     0          
H12      H      0.300600000000     0.452700000000     0.408700000000     0          
C25      C      0.443900000000     0.548100000000     0.284500000000     0          
F3       F      0.400700000000     0.539800000000     0.201700000000     0          
F4       F      0.430500000000     0.601500000000     0.180700000000     0          
C26      C      0.427000000000     0.559300000000     0.193700000000     0          
F5       F      0.440500000000     0.544100000000     0.149400000000     0          
Zr1      Zr     0.500000000000     0.578010000000     0.411790000000     0          
O6       O      0.500000000000     0.502700000000     0.632600000000     0          
O8       O      0.500000000000     0.580200000000     0.537500000000     0          
C17      C      0.500000000000     0.603900000000     0.711900000000     0          
C18      C      0.500000000000     0.627400000000     0.788900000000     0          
F2       F      0.500000000000     0.596700000000     0.850900000000     0          
N1       N      0.159300000000     0.500000000000     0.500000000000     0          
C7       C      0.192800000000     0.500000000000     0.500000000000     0          
C14      C      0.258900000000     0.500000000000     0.500000000000     0          
C15      C      0.360500000000     0.500000000000     0.500000000000     0          
C19      C      0.395300000000     0.500000000000     0.500000000000     0          
C20      C      0.293700000000     0.500000000000     0.500000000000     0          
Zr2      Zr     0.041310000000     0.458470000000     0.082700000000     0          
O1       O      0.467790000000     0.855300000000     0.939400000000     0          
O2       O      0.441490000000     0.879000000000     0.048600000000     0          
O3       O      0.091770000000     0.471200000000     0.051400000000     0          
O4       O      0.027100000000     0.407500000000     0.184300000000     0          
O5       O      0.040230000000     0.461600000000     0.956800000000     0          
O7       O      0.062940000000     0.506900000000     0.811900000000     0          
O9       O      0.029400000000     0.412000000000     0.807000000000     0          
C1       C      0.438800000000     0.759400000000     0.932800000000     0          
H1       H      0.450500000000     0.767500000000     0.887700000000     0          
C2       C      0.403800000000     0.697600000000     0.997900000000     0          
C3       C      0.356400000000     0.548000000000     0.000500000000     0          
C4       C      0.433600000000     0.795300000000     0.993100000000     0          
C5       C      0.384300000000     0.553700000000     0.958100000000     0          
H2       H      0.392800000000     0.526300000000     0.928400000000     0          
C6       C      0.386700000000     0.645800000000     0.998200000000     0          
C8       C      0.448800000000     0.847300000000     0.995400000000     0          
C9       C      0.425000000000     0.709700000000     0.944600000000     0          
H3       H      0.431700000000     0.682800000000     0.911200000000     0          
C10      C      0.358100000000     0.640000000000     0.034600000000     0          
H4       H      0.347900000000     0.668800000000     0.056500000000     0          
C11      C      0.344300000000     0.590200000000     0.038500000000     0          
H5       H      0.326100000000     0.586000000000     0.068500000000     0          
C12      C      0.399100000000     0.603100000000     0.962600000000     0          
H6       H      0.418900000000     0.606500000000     0.939400000000     0          
C13      C      0.415400000000     0.780500000000     0.059000000000     0          
H7       H      0.414100000000     0.802800000000     0.102700000000     0          
C16      C      0.257300000000     0.527900000000     0.947200000000     0          
H8       H      0.246700000000     0.544900000000     0.906300000000     0          
F1       F      0.977400000000     0.333600000000     0.300600000000     0          
C21      C      0.290000000000     0.531900000000     0.952500000000     0          
H9       H      0.300300000000     0.557200000000     0.922500000000     0          
C22      C      0.399500000000     0.733900000000     0.059600000000     0          
H10      H      0.385800000000     0.726300000000     0.101100000000     0          
C23      C      0.155200000000     0.535500000000     0.957400000000     0          
H11      H      0.144700000000     0.563200000000     0.933100000000     0          
C24      C      0.189200000000     0.529800000000     0.949700000000     0          
H12      H      0.199400000000     0.547300000000     0.908700000000     0          
C25      C      0.056100000000     0.451900000000     0.784500000000     0          
F3       F      0.099300000000     0.460200000000     0.701700000000     0          
F4       F      0.069500000000     0.398500000000     0.680700000000     0          
C26      C      0.073000000000     0.440700000000     0.693700000000     0          
F5       F      0.059500000000     0.455900000000     0.649400000000     0          
Zr1      Zr     0.000000000000     0.421990000000     0.911790000000     0          
O6       O      0.000000000000     0.497300000000     0.132600000000     0          
O8       O      0.000000000000     0.419800000000     0.037500000000     0          
C17      C      0.000000000000     0.396100000000     0.211900000000     0          
C18      C      0.000000000000     0.372600000000     0.288900000000     0          
F2       F      0.000000000000     0.403300000000     0.350900000000     0          
N1       N      0.340700000000     0.500000000000     0.000000000000     0          
C7       C      0.307200000000     0.500000000000     0.000000000000     0          
C14      C      0.241100000000     0.500000000000     0.000000000000     0          
C15      C      0.139500000000     0.500000000000     0.000000000000     0          
C19      C      0.104700000000     0.500000000000     0.000000000000     0          
C20      C      0.206300000000     0.500000000000     0.000000000000     0          
Zr2      Zr     0.458690000000     0.458470000000     0.417300000000     0          
O1       O      0.032210000000     0.855300000000     0.560600000000     0          
O2       O      0.058510000000     0.879000000000     0.451400000000     0          
O3       O      0.408230000000     0.471200000000     0.448600000000     0          
O4       O      0.472900000000     0.407500000000     0.315700000000     0          
O5       O      0.459770000000     0.461600000000     0.543200000000     0          
O7       O      0.437060000000     0.506900000000     0.688100000000     0          
O9       O      0.470600000000     0.412000000000     0.693000000000     0          
C1       C      0.061200000000     0.759400000000     0.567200000000     0          
H1       H      0.049500000000     0.767500000000     0.612300000000     0          
C2       C      0.096200000000     0.697600000000     0.502100000000     0          
C3       C      0.143600000000     0.548000000000     0.499500000000     0          
C4       C      0.066400000000     0.795300000000     0.506900000000     0          
C5       C      0.115700000000     0.553700000000     0.541900000000     0          
H2       H      0.107200000000     0.526300000000     0.571600000000     0          
C6       C      0.113300000000     0.645800000000     0.501800000000     0          
C8       C      0.051200000000     0.847300000000     0.504600000000     0          
C9       C      0.075000000000     0.709700000000     0.555400000000     0          
H3       H      0.068300000000     0.682800000000     0.588800000000     0          
C10      C      0.141900000000     0.640000000000     0.465400000000     0          
H4       H      0.152100000000     0.668800000000     0.443500000000     0          
C11      C      0.155700000000     0.590200000000     0.461500000000     0          
H5       H      0.173900000000     0.586000000000     0.431500000000     0          
C12      C      0.100900000000     0.603100000000     0.537400000000     0          
H6       H      0.081100000000     0.606500000000     0.560600000000     0          
C13      C      0.084600000000     0.780500000000     0.441000000000     0          
H7       H      0.085900000000     0.802800000000     0.397300000000     0          
C16      C      0.242700000000     0.527900000000     0.552800000000     0          
H8       H      0.253300000000     0.544900000000     0.593700000000     0          
F1       F      0.522600000000     0.333600000000     0.199400000000     0          
C21      C      0.210000000000     0.531900000000     0.547500000000     0          
H9       H      0.199700000000     0.557200000000     0.577500000000     0          
C22      C      0.100500000000     0.733900000000     0.440400000000     0          
H10      H      0.114200000000     0.726300000000     0.398900000000     0          
C23      C      0.344800000000     0.535500000000     0.542600000000     0          
H11      H      0.355300000000     0.563200000000     0.566900000000     0          
C24      C      0.310800000000     0.529800000000     0.550300000000     0          
H12      H      0.300600000000     0.547300000000     0.591300000000     0          
C25      C      0.443900000000     0.451900000000     0.715500000000     0          
F3       F      0.400700000000     0.460200000000     0.798300000000     0          
F4       F      0.430500000000     0.398500000000     0.819300000000     0          
C26      C      0.427000000000     0.440700000000     0.806300000000     0          
F5       F      0.440500000000     0.455900000000     0.850600000000     0          
Zr1      Zr     0.500000000000     0.421990000000     0.588210000000     0          
O6       O      0.500000000000     0.497300000000     0.367400000000     0          
O8       O      0.500000000000     0.419800000000     0.462500000000     0          
C17      C      0.500000000000     0.396100000000     0.288100000000     0          
C18      C      0.500000000000     0.372600000000     0.211100000000     0          
F2       F      0.500000000000     0.403300000000     0.149100000000     0          
Zr2      Zr     0.041310000000     0.541530000000     0.917300000000     0          
O1       O      0.467790000000     0.144700000000     0.060600000000     0          
O2       O      0.441490000000     0.121000000000     0.951400000000     0          
O3       O      0.091770000000     0.528800000000     0.948600000000     0          
O4       O      0.027100000000     0.592500000000     0.815700000000     0          
O5       O      0.040230000000     0.538400000000     0.043200000000     0          
O7       O      0.062940000000     0.493100000000     0.188100000000     0          
O9       O      0.029400000000     0.588000000000     0.193000000000     0          
C1       C      0.438800000000     0.240600000000     0.067200000000     0          
H1       H      0.450500000000     0.232500000000     0.112300000000     0          
C2       C      0.403800000000     0.302400000000     0.002100000000     0          
C3       C      0.356400000000     0.452000000000     0.999500000000     0          
C4       C      0.433600000000     0.204700000000     0.006900000000     0          
C5       C      0.384300000000     0.446300000000     0.041900000000     0          
H2       H      0.392800000000     0.473700000000     0.071600000000     0          
C6       C      0.386700000000     0.354200000000     0.001800000000     0          
C8       C      0.448800000000     0.152700000000     0.004600000000     0          
C9       C      0.425000000000     0.290300000000     0.055400000000     0          
H3       H      0.431700000000     0.317200000000     0.088800000000     0          
C10      C      0.358100000000     0.360000000000     0.965400000000     0          
H4       H      0.347900000000     0.331200000000     0.943500000000     0          
C11      C      0.344300000000     0.409800000000     0.961500000000     0          
H5       H      0.326100000000     0.414000000000     0.931500000000     0          
C12      C      0.399100000000     0.396900000000     0.037400000000     0          
H6       H      0.418900000000     0.393500000000     0.060600000000     0          
C13      C      0.415400000000     0.219500000000     0.941000000000     0          
H7       H      0.414100000000     0.197200000000     0.897300000000     0          
C16      C      0.257300000000     0.472100000000     0.052800000000     0          
H8       H      0.246700000000     0.455100000000     0.093700000000     0          
F1       F      0.977400000000     0.666400000000     0.699400000000     0          
C21      C      0.290000000000     0.468100000000     0.047500000000     0          
H9       H      0.300300000000     0.442800000000     0.077500000000     0          
C22      C      0.399500000000     0.266100000000     0.940400000000     0          
H10      H      0.385800000000     0.273700000000     0.898900000000     0          
C23      C      0.155200000000     0.464500000000     0.042600000000     0          
H11      H      0.144700000000     0.436800000000     0.066900000000     0          
C24      C      0.189200000000     0.470200000000     0.050300000000     0          
H12      H      0.199400000000     0.452700000000     0.091300000000     0          
C25      C      0.056100000000     0.548100000000     0.215500000000     0          
F3       F      0.099300000000     0.539800000000     0.298300000000     0          
F4       F      0.069500000000     0.601500000000     0.319300000000     0          
C26      C      0.073000000000     0.559300000000     0.306300000000     0          
F5       F      0.059500000000     0.544100000000     0.350600000000     0          
Zr1      Zr     0.000000000000     0.578010000000     0.088210000000     0          
O6       O      0.000000000000     0.502700000000     0.867400000000     0          
O8       O      0.000000000000     0.580200000000     0.962500000000     0          
C17      C      0.000000000000     0.603900000000     0.788100000000     0          
C18      C      0.000000000000     0.627400000000     0.711100000000     0          
F2       F      0.000000000000     0.596700000000     0.649100000000     0          
Zr2      Zr     0.541310000000     0.458470000000     0.417300000000     0          
O1       O      0.967790000000     0.855300000000     0.560600000000     0          
O2       O      0.941490000000     0.879000000000     0.451400000000     0          
O3       O      0.591770000000     0.471200000000     0.448600000000     0          
O4       O      0.527100000000     0.407500000000     0.315700000000     0          
O5       O      0.540230000000     0.461600000000     0.543200000000     0          
O7       O      0.562940000000     0.506900000000     0.688100000000     0          
O9       O      0.529400000000     0.412000000000     0.693000000000     0          
C1       C      0.938800000000     0.759400000000     0.567200000000     0          
H1       H      0.950500000000     0.767500000000     0.612300000000     0          
C2       C      0.903800000000     0.697600000000     0.502100000000     0          
C3       C      0.856400000000     0.548000000000     0.499500000000     0          
C4       C      0.933600000000     0.795300000000     0.506900000000     0          
C5       C      0.884300000000     0.553700000000     0.541900000000     0          
H2       H      0.892800000000     0.526300000000     0.571600000000     0          
C6       C      0.886700000000     0.645800000000     0.501800000000     0          
C8       C      0.948800000000     0.847300000000     0.504600000000     0          
C9       C      0.925000000000     0.709700000000     0.555400000000     0          
H3       H      0.931700000000     0.682800000000     0.588800000000     0          
C10      C      0.858100000000     0.640000000000     0.465400000000     0          
H4       H      0.847900000000     0.668800000000     0.443500000000     0          
C11      C      0.844300000000     0.590200000000     0.461500000000     0          
H5       H      0.826100000000     0.586000000000     0.431500000000     0          
C12      C      0.899100000000     0.603100000000     0.537400000000     0          
H6       H      0.918900000000     0.606500000000     0.560600000000     0          
C13      C      0.915400000000     0.780500000000     0.441000000000     0          
H7       H      0.914100000000     0.802800000000     0.397300000000     0          
C16      C      0.757300000000     0.527900000000     0.552800000000     0          
H8       H      0.746700000000     0.544900000000     0.593700000000     0          
F1       F      0.477400000000     0.333600000000     0.199400000000     0          
C21      C      0.790000000000     0.531900000000     0.547500000000     0          
H9       H      0.800300000000     0.557200000000     0.577500000000     0          
C22      C      0.899500000000     0.733900000000     0.440400000000     0          
H10      H      0.885800000000     0.726300000000     0.398900000000     0          
C23      C      0.655200000000     0.535500000000     0.542600000000     0          
H11      H      0.644700000000     0.563200000000     0.566900000000     0          
C24      C      0.689200000000     0.529800000000     0.550300000000     0          
H12      H      0.699400000000     0.547300000000     0.591300000000     0          
C25      C      0.556100000000     0.451900000000     0.715500000000     0          
F3       F      0.599300000000     0.460200000000     0.798300000000     0          
F4       F      0.569500000000     0.398500000000     0.819300000000     0          
C26      C      0.573000000000     0.440700000000     0.806300000000     0          
F5       F      0.559500000000     0.455900000000     0.850600000000     0          
N1       N      0.840700000000     0.500000000000     0.500000000000     0          
C7       C      0.807200000000     0.500000000000     0.500000000000     0          
C14      C      0.741100000000     0.500000000000     0.500000000000     0          
C15      C      0.639500000000     0.500000000000     0.500000000000     0          
C19      C      0.604700000000     0.500000000000     0.500000000000     0          
C20      C      0.706300000000     0.500000000000     0.500000000000     0          
Zr2      Zr     0.958690000000     0.541530000000     0.917300000000     0          
O1       O      0.532210000000     0.144700000000     0.060600000000     0          
O2       O      0.558510000000     0.121000000000     0.951400000000     0          
O3       O      0.908230000000     0.528800000000     0.948600000000     0          
O4       O      0.972900000000     0.592500000000     0.815700000000     0          
O5       O      0.959770000000     0.538400000000     0.043200000000     0          
O7       O      0.937060000000     0.493100000000     0.188100000000     0          
O9       O      0.970600000000     0.588000000000     0.193000000000     0          
C1       C      0.561200000000     0.240600000000     0.067200000000     0          
H1       H      0.549500000000     0.232500000000     0.112300000000     0          
C2       C      0.596200000000     0.302400000000     0.002100000000     0          
C3       C      0.643600000000     0.452000000000     0.999500000000     0          
C4       C      0.566400000000     0.204700000000     0.006900000000     0          
C5       C      0.615700000000     0.446300000000     0.041900000000     0          
H2       H      0.607200000000     0.473700000000     0.071600000000     0          
C6       C      0.613300000000     0.354200000000     0.001800000000     0          
C8       C      0.551200000000     0.152700000000     0.004600000000     0          
C9       C      0.575000000000     0.290300000000     0.055400000000     0          
H3       H      0.568300000000     0.317200000000     0.088800000000     0          
C10      C      0.641900000000     0.360000000000     0.965400000000     0          
H4       H      0.652100000000     0.331200000000     0.943500000000     0          
C11      C      0.655700000000     0.409800000000     0.961500000000     0          
H5       H      0.673900000000     0.414000000000     0.931500000000     0          
C12      C      0.600900000000     0.396900000000     0.037400000000     0          
H6       H      0.581100000000     0.393500000000     0.060600000000     0          
C13      C      0.584600000000     0.219500000000     0.941000000000     0          
H7       H      0.585900000000     0.197200000000     0.897300000000     0          
C16      C      0.742700000000     0.472100000000     0.052800000000     0          
H8       H      0.753300000000     0.455100000000     0.093700000000     0          
F1       F      0.022600000000     0.666400000000     0.699400000000     0          
C21      C      0.710000000000     0.468100000000     0.047500000000     0          
H9       H      0.699700000000     0.442800000000     0.077500000000     0          
C22      C      0.600500000000     0.266100000000     0.940400000000     0          
H10      H      0.614200000000     0.273700000000     0.898900000000     0          
C23      C      0.844800000000     0.464500000000     0.042600000000     0          
H11      H      0.855300000000     0.436800000000     0.066900000000     0          
C24      C      0.810800000000     0.470200000000     0.050300000000     0          
H12      H      0.800600000000     0.452700000000     0.091300000000     0          
C25      C      0.943900000000     0.548100000000     0.215500000000     0          
F3       F      0.900700000000     0.539800000000     0.298300000000     0          
F4       F      0.930500000000     0.601500000000     0.319300000000     0          
C26      C      0.927000000000     0.559300000000     0.306300000000     0          
F5       F      0.940500000000     0.544100000000     0.350600000000     0          
N1       N      0.659300000000     0.500000000000     0.000000000000     0          
C7       C      0.692800000000     0.500000000000     0.000000000000     0          
C14      C      0.758900000000     0.500000000000     0.000000000000     0          
C15      C      0.860500000000     0.500000000000     0.000000000000     0          
C19      C      0.895300000000     0.500000000000     0.000000000000     0          
C20      C      0.793700000000     0.500000000000     0.000000000000     0          
Zr2      Zr     0.541310000000     0.541530000000     0.582700000000     0          
O1       O      0.967790000000     0.144700000000     0.439400000000     0          
O2       O      0.941490000000     0.121000000000     0.548600000000     0          
O3       O      0.591770000000     0.528800000000     0.551400000000     0          
O4       O      0.527100000000     0.592500000000     0.684300000000     0          
O5       O      0.540230000000     0.538400000000     0.456800000000     0          
O7       O      0.562940000000     0.493100000000     0.311900000000     0          
O9       O      0.529400000000     0.588000000000     0.307000000000     0          
C1       C      0.938800000000     0.240600000000     0.432800000000     0          
H1       H      0.950500000000     0.232500000000     0.387700000000     0          
C2       C      0.903800000000     0.302400000000     0.497900000000     0          
C3       C      0.856400000000     0.452000000000     0.500500000000     0          
C4       C      0.933600000000     0.204700000000     0.493100000000     0          
C5       C      0.884300000000     0.446300000000     0.458100000000     0          
H2       H      0.892800000000     0.473700000000     0.428400000000     0          
C6       C      0.886700000000     0.354200000000     0.498200000000     0          
C8       C      0.948800000000     0.152700000000     0.495400000000     0          
C9       C      0.925000000000     0.290300000000     0.444600000000     0          
H3       H      0.931700000000     0.317200000000     0.411200000000     0          
C10      C      0.858100000000     0.360000000000     0.534600000000     0          
H4       H      0.847900000000     0.331200000000     0.556500000000     0          
C11      C      0.844300000000     0.409800000000     0.538500000000     0          
H5       H      0.826100000000     0.414000000000     0.568500000000     0          
C12      C      0.899100000000     0.396900000000     0.462600000000     0          
H6       H      0.918900000000     0.393500000000     0.439400000000     0          
C13      C      0.915400000000     0.219500000000     0.559000000000     0          
H7       H      0.914100000000     0.197200000000     0.602700000000     0          
C16      C      0.757300000000     0.472100000000     0.447200000000     0          
H8       H      0.746700000000     0.455100000000     0.406300000000     0          
F1       F      0.477400000000     0.666400000000     0.800600000000     0          
C21      C      0.790000000000     0.468100000000     0.452500000000     0          
H9       H      0.800300000000     0.442800000000     0.422500000000     0          
C22      C      0.899500000000     0.266100000000     0.559600000000     0          
H10      H      0.885800000000     0.273700000000     0.601100000000     0          
C23      C      0.655200000000     0.464500000000     0.457400000000     0          
H11      H      0.644700000000     0.436800000000     0.433100000000     0          
C24      C      0.689200000000     0.470200000000     0.449700000000     0          
H12      H      0.699400000000     0.452700000000     0.408700000000     0          
C25      C      0.556100000000     0.548100000000     0.284500000000     0          
F3       F      0.599300000000     0.539800000000     0.201700000000     0          
F4       F      0.569500000000     0.601500000000     0.180700000000     0          
C26      C      0.573000000000     0.559300000000     0.193700000000     0          
F5       F      0.559500000000     0.544100000000     0.149400000000     0          
Zr2      Zr     0.958690000000     0.458470000000     0.082700000000     0          
O1       O      0.532210000000     0.855300000000     0.939400000000     0          
O2       O      0.558510000000     0.879000000000     0.048600000000     0          
O3       O      0.908230000000     0.471200000000     0.051400000000     0          
O4       O      0.972900000000     0.407500000000     0.184300000000     0          
O5       O      0.959770000000     0.461600000000     0.956800000000     0          
O7       O      0.937060000000     0.506900000000     0.811900000000     0          
O9       O      0.970600000000     0.412000000000     0.807000000000     0          
C1       C      0.561200000000     0.759400000000     0.932800000000     0          
H1       H      0.549500000000     0.767500000000     0.887700000000     0          
C2       C      0.596200000000     0.697600000000     0.997900000000     0          
C3       C      0.643600000000     0.548000000000     0.000500000000     0          
C4       C      0.566400000000     0.795300000000     0.993100000000     0          
C5       C      0.615700000000     0.553700000000     0.958100000000     0          
H2       H      0.607200000000     0.526300000000     0.928400000000     0          
C6       C      0.613300000000     0.645800000000     0.998200000000     0          
C8       C      0.551200000000     0.847300000000     0.995400000000     0          
C9       C      0.575000000000     0.709700000000     0.944600000000     0          
H3       H      0.568300000000     0.682800000000     0.911200000000     0          
C10      C      0.641900000000     0.640000000000     0.034600000000     0          
H4       H      0.652100000000     0.668800000000     0.056500000000     0          
C11      C      0.655700000000     0.590200000000     0.038500000000     0          
H5       H      0.673900000000     0.586000000000     0.068500000000     0          
C12      C      0.600900000000     0.603100000000     0.962600000000     0          
H6       H      0.581100000000     0.606500000000     0.939400000000     0          
C13      C      0.584600000000     0.780500000000     0.059000000000     0          
H7       H      0.585900000000     0.802800000000     0.102700000000     0          
C16      C      0.742700000000     0.527900000000     0.947200000000     0          
H8       H      0.753300000000     0.544900000000     0.906300000000     0          
F1       F      0.022600000000     0.333600000000     0.300600000000     0          
C21      C      0.710000000000     0.531900000000     0.952500000000     0          
H9       H      0.699700000000     0.557200000000     0.922500000000     0          
C22      C      0.600500000000     0.733900000000     0.059600000000     0          
H10      H      0.614200000000     0.726300000000     0.101100000000     0          
C23      C      0.844800000000     0.535500000000     0.957400000000     0          
H11      H      0.855300000000     0.563200000000     0.933100000000     0          
C24      C      0.810800000000     0.529800000000     0.949700000000     0          
H12      H      0.800600000000     0.547300000000     0.908700000000     0          
C25      C      0.943900000000     0.451900000000     0.784500000000     0          
F3       F      0.900700000000     0.460200000000     0.701700000000     0          
F4       F      0.930500000000     0.398500000000     0.680700000000     0          
C26      C      0.927000000000     0.440700000000     0.693700000000     0          
F5       F      0.940500000000     0.455900000000     0.649400000000     0          
Zr2      Zr     0.958690000000     0.041530000000     0.582700000000     0          
O1       O      0.532210000000     0.644700000000     0.439400000000     0          
O2       O      0.558510000000     0.621000000000     0.548600000000     0          
O3       O      0.908230000000     0.028800000000     0.551400000000     0          
O4       O      0.972900000000     0.092500000000     0.684300000000     0          
O5       O      0.959770000000     0.038400000000     0.456800000000     0          
O7       O      0.937060000000     0.993100000000     0.311900000000     0          
O9       O      0.970600000000     0.088000000000     0.307000000000     0          
C1       C      0.561200000000     0.740600000000     0.432800000000     0          
H1       H      0.549500000000     0.732500000000     0.387700000000     0          
C2       C      0.596200000000     0.802400000000     0.497900000000     0          
C3       C      0.643600000000     0.952000000000     0.500500000000     0          
C4       C      0.566400000000     0.704700000000     0.493100000000     0          
C5       C      0.615700000000     0.946300000000     0.458100000000     0          
H2       H      0.607200000000     0.973700000000     0.428400000000     0          
C6       C      0.613300000000     0.854200000000     0.498200000000     0          
C8       C      0.551200000000     0.652700000000     0.495400000000     0          
C9       C      0.575000000000     0.790300000000     0.444600000000     0          
H3       H      0.568300000000     0.817200000000     0.411200000000     0          
C10      C      0.641900000000     0.860000000000     0.534600000000     0          
H4       H      0.652100000000     0.831200000000     0.556500000000     0          
C11      C      0.655700000000     0.909800000000     0.538500000000     0          
H5       H      0.673900000000     0.914000000000     0.568500000000     0          
C12      C      0.600900000000     0.896900000000     0.462600000000     0          
H6       H      0.581100000000     0.893500000000     0.439400000000     0          
C13      C      0.584600000000     0.719500000000     0.559000000000     0          
H7       H      0.585900000000     0.697200000000     0.602700000000     0          
C16      C      0.742700000000     0.972100000000     0.447200000000     0          
H8       H      0.753300000000     0.955100000000     0.406300000000     0          
F1       F      0.022600000000     0.166400000000     0.800600000000     0          
C21      C      0.710000000000     0.968100000000     0.452500000000     0          
H9       H      0.699700000000     0.942800000000     0.422500000000     0          
C22      C      0.600500000000     0.766100000000     0.559600000000     0          
H10      H      0.614200000000     0.773700000000     0.601100000000     0          
C23      C      0.844800000000     0.964500000000     0.457400000000     0          
H11      H      0.855300000000     0.936800000000     0.433100000000     0          
C24      C      0.810800000000     0.970200000000     0.449700000000     0          
H12      H      0.800600000000     0.952700000000     0.408700000000     0          
C25      C      0.943900000000     0.048100000000     0.284500000000     0          
F3       F      0.900700000000     0.039800000000     0.201700000000     0          
F4       F      0.930500000000     0.101500000000     0.180700000000     0          
C26      C      0.927000000000     0.059300000000     0.193700000000     0          
F5       F      0.940500000000     0.044100000000     0.149400000000     0          
Zr1      Zr     0.000000000000     0.078010000000     0.411790000000     0          
O6       O      0.000000000000     0.002700000000     0.632600000000     0          
O8       O      0.000000000000     0.080200000000     0.537500000000     0          
C17      C      0.000000000000     0.103900000000     0.711900000000     0          
C18      C      0.000000000000     0.127400000000     0.788900000000     0          
F2       F      0.000000000000     0.096700000000     0.850900000000     0          
N1       N      0.659300000000     0.000000000000     0.500000000000     0          
C7       C      0.692800000000     0.000000000000     0.500000000000     0          
C14      C      0.758900000000     0.000000000000     0.500000000000     0          
C15      C      0.860500000000     0.000000000000     0.500000000000     0          
C19      C      0.895300000000     0.000000000000     0.500000000000     0          
C20      C      0.793700000000     0.000000000000     0.500000000000     0          
Zr2      Zr     0.541310000000     0.958470000000     0.082700000000     0          
O1       O      0.967790000000     0.355300000000     0.939400000000     0          
O2       O      0.941490000000     0.379000000000     0.048600000000     0          
O3       O      0.591770000000     0.971200000000     0.051400000000     0          
O4       O      0.527100000000     0.907500000000     0.184300000000     0          
O5       O      0.540230000000     0.961600000000     0.956800000000     0          
O7       O      0.562940000000     0.006900000000     0.811900000000     0          
O9       O      0.529400000000     0.912000000000     0.807000000000     0          
C1       C      0.938800000000     0.259400000000     0.932800000000     0          
H1       H      0.950500000000     0.267500000000     0.887700000000     0          
C2       C      0.903800000000     0.197600000000     0.997900000000     0          
C3       C      0.856400000000     0.048000000000     0.000500000000     0          
C4       C      0.933600000000     0.295300000000     0.993100000000     0          
C5       C      0.884300000000     0.053700000000     0.958100000000     0          
H2       H      0.892800000000     0.026300000000     0.928400000000     0          
C6       C      0.886700000000     0.145800000000     0.998200000000     0          
C8       C      0.948800000000     0.347300000000     0.995400000000     0          
C9       C      0.925000000000     0.209700000000     0.944600000000     0          
H3       H      0.931700000000     0.182800000000     0.911200000000     0          
C10      C      0.858100000000     0.140000000000     0.034600000000     0          
H4       H      0.847900000000     0.168800000000     0.056500000000     0          
C11      C      0.844300000000     0.090200000000     0.038500000000     0          
H5       H      0.826100000000     0.086000000000     0.068500000000     0          
C12      C      0.899100000000     0.103100000000     0.962600000000     0          
H6       H      0.918900000000     0.106500000000     0.939400000000     0          
C13      C      0.915400000000     0.280500000000     0.059000000000     0          
H7       H      0.914100000000     0.302800000000     0.102700000000     0          
C16      C      0.757300000000     0.027900000000     0.947200000000     0          
H8       H      0.746700000000     0.044900000000     0.906300000000     0          
F1       F      0.477400000000     0.833600000000     0.300600000000     0          
C21      C      0.790000000000     0.031900000000     0.952500000000     0          
H9       H      0.800300000000     0.057200000000     0.922500000000     0          
C22      C      0.899500000000     0.233900000000     0.059600000000     0          
H10      H      0.885800000000     0.226300000000     0.101100000000     0          
C23      C      0.655200000000     0.035500000000     0.957400000000     0          
H11      H      0.644700000000     0.063200000000     0.933100000000     0          
C24      C      0.689200000000     0.029800000000     0.949700000000     0          
H12      H      0.699400000000     0.047300000000     0.908700000000     0          
C25      C      0.556100000000     0.951900000000     0.784500000000     0          
F3       F      0.599300000000     0.960200000000     0.701700000000     0          
F4       F      0.569500000000     0.898500000000     0.680700000000     0          
C26      C      0.573000000000     0.940700000000     0.693700000000     0          
F5       F      0.559500000000     0.955900000000     0.649400000000     0          
Zr1      Zr     0.500000000000     0.921990000000     0.911790000000     0          
O6       O      0.500000000000     0.997300000000     0.132600000000     0          
O8       O      0.500000000000     0.919800000000     0.037500000000     0          
C17      C      0.500000000000     0.896100000000     0.211900000000     0          
C18      C      0.500000000000     0.872600000000     0.288900000000     0          
F2       F      0.500000000000     0.903300000000     0.350900000000     0          
N1       N      0.840700000000     0.000000000000     0.000000000000     0          
C7       C      0.807200000000     0.000000000000     0.000000000000     0          
C14      C      0.741100000000     0.000000000000     0.000000000000     0          
C15      C      0.639500000000     0.000000000000     0.000000000000     0          
C19      C      0.604700000000     0.000000000000     0.000000000000     0          
C20      C      0.706300000000     0.000000000000     0.000000000000     0          
Zr2      Zr     0.958690000000     0.958470000000     0.417300000000     0          
O1       O      0.532210000000     0.355300000000     0.560600000000     0          
O2       O      0.558510000000     0.379000000000     0.451400000000     0          
O3       O      0.908230000000     0.971200000000     0.448600000000     0          
O4       O      0.972900000000     0.907500000000     0.315700000000     0          
O5       O      0.959770000000     0.961600000000     0.543200000000     0          
O7       O      0.937060000000     0.006900000000     0.688100000000     0          
O9       O      0.970600000000     0.912000000000     0.693000000000     0          
C1       C      0.561200000000     0.259400000000     0.567200000000     0          
H1       H      0.549500000000     0.267500000000     0.612300000000     0          
C2       C      0.596200000000     0.197600000000     0.502100000000     0          
C3       C      0.643600000000     0.048000000000     0.499500000000     0          
C4       C      0.566400000000     0.295300000000     0.506900000000     0          
C5       C      0.615700000000     0.053700000000     0.541900000000     0          
H2       H      0.607200000000     0.026300000000     0.571600000000     0          
C6       C      0.613300000000     0.145800000000     0.501800000000     0          
C8       C      0.551200000000     0.347300000000     0.504600000000     0          
C9       C      0.575000000000     0.209700000000     0.555400000000     0          
H3       H      0.568300000000     0.182800000000     0.588800000000     0          
C10      C      0.641900000000     0.140000000000     0.465400000000     0          
H4       H      0.652100000000     0.168800000000     0.443500000000     0          
C11      C      0.655700000000     0.090200000000     0.461500000000     0          
H5       H      0.673900000000     0.086000000000     0.431500000000     0          
C12      C      0.600900000000     0.103100000000     0.537400000000     0          
H6       H      0.581100000000     0.106500000000     0.560600000000     0          
C13      C      0.584600000000     0.280500000000     0.441000000000     0          
H7       H      0.585900000000     0.302800000000     0.397300000000     0          
C16      C      0.742700000000     0.027900000000     0.552800000000     0          
H8       H      0.753300000000     0.044900000000     0.593700000000     0          
F1       F      0.022600000000     0.833600000000     0.199400000000     0          
C21      C      0.710000000000     0.031900000000     0.547500000000     0          
H9       H      0.699700000000     0.057200000000     0.577500000000     0          
C22      C      0.600500000000     0.233900000000     0.440400000000     0          
H10      H      0.614200000000     0.226300000000     0.398900000000     0          
C23      C      0.844800000000     0.035500000000     0.542600000000     0          
H11      H      0.855300000000     0.063200000000     0.566900000000     0          
C24      C      0.810800000000     0.029800000000     0.550300000000     0          
H12      H      0.800600000000     0.047300000000     0.591300000000     0          
C25      C      0.943900000000     0.951900000000     0.715500000000     0          
F3       F      0.900700000000     0.960200000000     0.798300000000     0          
F4       F      0.930500000000     0.898500000000     0.819300000000     0          
C26      C      0.927000000000     0.940700000000     0.806300000000     0          
F5       F      0.940500000000     0.955900000000     0.850600000000     0          
Zr1      Zr     0.000000000000     0.921990000000     0.588210000000     0          
O6       O      0.000000000000     0.997300000000     0.367400000000     0          
O8       O      0.000000000000     0.919800000000     0.462500000000     0          
C17      C      0.000000000000     0.896100000000     0.288100000000     0          
C18      C      0.000000000000     0.872600000000     0.211100000000     0          
F2       F      0.000000000000     0.903300000000     0.149100000000     0          
Zr2      Zr     0.541310000000     0.041530000000     0.917300000000     0          
O1       O      0.967790000000     0.644700000000     0.060600000000     0          
O2       O      0.941490000000     0.621000000000     0.951400000000     0          
O3       O      0.591770000000     0.028800000000     0.948600000000     0          
O4       O      0.527100000000     0.092500000000     0.815700000000     0          
O5       O      0.540230000000     0.038400000000     0.043200000000     0          
O7       O      0.562940000000     0.993100000000     0.188100000000     0          
O9       O      0.529400000000     0.088000000000     0.193000000000     0          
C1       C      0.938800000000     0.740600000000     0.067200000000     0          
H1       H      0.950500000000     0.732500000000     0.112300000000     0          
C2       C      0.903800000000     0.802400000000     0.002100000000     0          
C3       C      0.856400000000     0.952000000000     0.999500000000     0          
C4       C      0.933600000000     0.704700000000     0.006900000000     0          
C5       C      0.884300000000     0.946300000000     0.041900000000     0          
H2       H      0.892800000000     0.973700000000     0.071600000000     0          
C6       C      0.886700000000     0.854200000000     0.001800000000     0          
C8       C      0.948800000000     0.652700000000     0.004600000000     0          
C9       C      0.925000000000     0.790300000000     0.055400000000     0          
H3       H      0.931700000000     0.817200000000     0.088800000000     0          
C10      C      0.858100000000     0.860000000000     0.965400000000     0          
H4       H      0.847900000000     0.831200000000     0.943500000000     0          
C11      C      0.844300000000     0.909800000000     0.961500000000     0          
H5       H      0.826100000000     0.914000000000     0.931500000000     0          
C12      C      0.899100000000     0.896900000000     0.037400000000     0          
H6       H      0.918900000000     0.893500000000     0.060600000000     0          
C13      C      0.915400000000     0.719500000000     0.941000000000     0          
H7       H      0.914100000000     0.697200000000     0.897300000000     0          
C16      C      0.757300000000     0.972100000000     0.052800000000     0          
H8       H      0.746700000000     0.955100000000     0.093700000000     0          
F1       F      0.477400000000     0.166400000000     0.699400000000     0          
C21      C      0.790000000000     0.968100000000     0.047500000000     0          
H9       H      0.800300000000     0.942800000000     0.077500000000     0          
C22      C      0.899500000000     0.766100000000     0.940400000000     0          
H10      H      0.885800000000     0.773700000000     0.898900000000     0          
C23      C      0.655200000000     0.964500000000     0.042600000000     0          
H11      H      0.644700000000     0.936800000000     0.066900000000     0          
C24      C      0.689200000000     0.970200000000     0.050300000000     0          
H12      H      0.699400000000     0.952700000000     0.091300000000     0          
C25      C      0.556100000000     0.048100000000     0.215500000000     0          
F3       F      0.599300000000     0.039800000000     0.298300000000     0          
F4       F      0.569500000000     0.101500000000     0.319300000000     0          
C26      C      0.573000000000     0.059300000000     0.306300000000     0          
F5       F      0.559500000000     0.044100000000     0.350600000000     0          
Zr1      Zr     0.500000000000     0.078010000000     0.088210000000     0          
O6       O      0.500000000000     0.002700000000     0.867400000000     0          
O8       O      0.500000000000     0.080200000000     0.962500000000     0          
C17      C      0.500000000000     0.103900000000     0.788100000000     0          
C18      C      0.500000000000     0.127400000000     0.711100000000     0          
F2       F      0.500000000000     0.096700000000     0.649100000000     0          
Zr2      Zr     0.041310000000     0.958470000000     0.417300000000     0          
O1       O      0.467790000000     0.355300000000     0.560600000000     0          
O2       O      0.441490000000     0.379000000000     0.451400000000     0          
O3       O      0.091770000000     0.971200000000     0.448600000000     0          
O4       O      0.027100000000     0.907500000000     0.315700000000     0          
O5       O      0.040230000000     0.961600000000     0.543200000000     0          
O7       O      0.062940000000     0.006900000000     0.688100000000     0          
O9       O      0.029400000000     0.912000000000     0.693000000000     0          
C1       C      0.438800000000     0.259400000000     0.567200000000     0          
H1       H      0.450500000000     0.267500000000     0.612300000000     0          
C2       C      0.403800000000     0.197600000000     0.502100000000     0          
C3       C      0.356400000000     0.048000000000     0.499500000000     0          
C4       C      0.433600000000     0.295300000000     0.506900000000     0          
C5       C      0.384300000000     0.053700000000     0.541900000000     0          
H2       H      0.392800000000     0.026300000000     0.571600000000     0          
C6       C      0.386700000000     0.145800000000     0.501800000000     0          
C8       C      0.448800000000     0.347300000000     0.504600000000     0          
C9       C      0.425000000000     0.209700000000     0.555400000000     0          
H3       H      0.431700000000     0.182800000000     0.588800000000     0          
C10      C      0.358100000000     0.140000000000     0.465400000000     0          
H4       H      0.347900000000     0.168800000000     0.443500000000     0          
C11      C      0.344300000000     0.090200000000     0.461500000000     0          
H5       H      0.326100000000     0.086000000000     0.431500000000     0          
C12      C      0.399100000000     0.103100000000     0.537400000000     0          
H6       H      0.418900000000     0.106500000000     0.560600000000     0          
C13      C      0.415400000000     0.280500000000     0.441000000000     0          
H7       H      0.414100000000     0.302800000000     0.397300000000     0          
C16      C      0.257300000000     0.027900000000     0.552800000000     0          
H8       H      0.246700000000     0.044900000000     0.593700000000     0          
F1       F      0.977400000000     0.833600000000     0.199400000000     0          
C21      C      0.290000000000     0.031900000000     0.547500000000     0          
H9       H      0.300300000000     0.057200000000     0.577500000000     0          
C22      C      0.399500000000     0.233900000000     0.440400000000     0          
H10      H      0.385800000000     0.226300000000     0.398900000000     0          
C23      C      0.155200000000     0.035500000000     0.542600000000     0          
H11      H      0.144700000000     0.063200000000     0.566900000000     0          
C24      C      0.189200000000     0.029800000000     0.550300000000     0          
H12      H      0.199400000000     0.047300000000     0.591300000000     0          
C25      C      0.056100000000     0.951900000000     0.715500000000     0          
F3       F      0.099300000000     0.960200000000     0.798300000000     0          
F4       F      0.069500000000     0.898500000000     0.819300000000     0          
C26      C      0.073000000000     0.940700000000     0.806300000000     0          
F5       F      0.059500000000     0.955900000000     0.850600000000     0          
N1       N      0.340700000000     0.000000000000     0.500000000000     0          
C7       C      0.307200000000     0.000000000000     0.500000000000     0          
C14      C      0.241100000000     0.000000000000     0.500000000000     0          
C15      C      0.139500000000     0.000000000000     0.500000000000     0          
C19      C      0.104700000000     0.000000000000     0.500000000000     0          
C20      C      0.206300000000     0.000000000000     0.500000000000     0          
Zr2      Zr     0.458690000000     0.041530000000     0.917300000000     0          
O1       O      0.032210000000     0.644700000000     0.060600000000     0          
O2       O      0.058510000000     0.621000000000     0.951400000000     0          
O3       O      0.408230000000     0.028800000000     0.948600000000     0          
O4       O      0.472900000000     0.092500000000     0.815700000000     0          
O5       O      0.459770000000     0.038400000000     0.043200000000     0          
O7       O      0.437060000000     0.993100000000     0.188100000000     0          
O9       O      0.470600000000     0.088000000000     0.193000000000     0          
C1       C      0.061200000000     0.740600000000     0.067200000000     0          
H1       H      0.049500000000     0.732500000000     0.112300000000     0          
C2       C      0.096200000000     0.802400000000     0.002100000000     0          
C3       C      0.143600000000     0.952000000000     0.999500000000     0          
C4       C      0.066400000000     0.704700000000     0.006900000000     0          
C5       C      0.115700000000     0.946300000000     0.041900000000     0          
H2       H      0.107200000000     0.973700000000     0.071600000000     0          
C6       C      0.113300000000     0.854200000000     0.001800000000     0          
C8       C      0.051200000000     0.652700000000     0.004600000000     0          
C9       C      0.075000000000     0.790300000000     0.055400000000     0          
H3       H      0.068300000000     0.817200000000     0.088800000000     0          
C10      C      0.141900000000     0.860000000000     0.965400000000     0          
H4       H      0.152100000000     0.831200000000     0.943500000000     0          
C11      C      0.155700000000     0.909800000000     0.961500000000     0          
H5       H      0.173900000000     0.914000000000     0.931500000000     0          
C12      C      0.100900000000     0.896900000000     0.037400000000     0          
H6       H      0.081100000000     0.893500000000     0.060600000000     0          
C13      C      0.084600000000     0.719500000000     0.941000000000     0          
H7       H      0.085900000000     0.697200000000     0.897300000000     0          
C16      C      0.242700000000     0.972100000000     0.052800000000     0          
H8       H      0.253300000000     0.955100000000     0.093700000000     0          
F1       F      0.522600000000     0.166400000000     0.699400000000     0          
C21      C      0.210000000000     0.968100000000     0.047500000000     0          
H9       H      0.199700000000     0.942800000000     0.077500000000     0          
C22      C      0.100500000000     0.766100000000     0.940400000000     0          
H10      H      0.114200000000     0.773700000000     0.898900000000     0          
C23      C      0.344800000000     0.964500000000     0.042600000000     0          
H11      H      0.355300000000     0.936800000000     0.066900000000     0          
C24      C      0.310800000000     0.970200000000     0.050300000000     0          
H12      H      0.300600000000     0.952700000000     0.091300000000     0          
C25      C      0.443900000000     0.048100000000     0.215500000000     0          
F3       F      0.400700000000     0.039800000000     0.298300000000     0          
F4       F      0.430500000000     0.101500000000     0.319300000000     0          
C26      C      0.427000000000     0.059300000000     0.306300000000     0          
F5       F      0.440500000000     0.044100000000     0.350600000000     0          
N1       N      0.159300000000     0.000000000000     0.000000000000     0          
C7       C      0.192800000000     0.000000000000     0.000000000000     0          
C14      C      0.258900000000     0.000000000000     0.000000000000     0          
C15      C      0.360500000000     0.000000000000     0.000000000000     0          
C19      C      0.395300000000     0.000000000000     0.000000000000     0          
C20      C      0.293700000000     0.000000000000     0.000000000000     0          
Zr2      Zr     0.041310000000     0.041530000000     0.582700000000     0          
O1       O      0.467790000000     0.644700000000     0.439400000000     0          
O2       O      0.441490000000     0.621000000000     0.548600000000     0          
O3       O      0.091770000000     0.028800000000     0.551400000000     0          
O4       O      0.027100000000     0.092500000000     0.684300000000     0          
O5       O      0.040230000000     0.038400000000     0.456800000000     0          
O7       O      0.062940000000     0.993100000000     0.311900000000     0          
O9       O      0.029400000000     0.088000000000     0.307000000000     0          
C1       C      0.438800000000     0.740600000000     0.432800000000     0          
H1       H      0.450500000000     0.732500000000     0.387700000000     0          
C2       C      0.403800000000     0.802400000000     0.497900000000     0          
C3       C      0.356400000000     0.952000000000     0.500500000000     0          
C4       C      0.433600000000     0.704700000000     0.493100000000     0          
C5       C      0.384300000000     0.946300000000     0.458100000000     0          
H2       H      0.392800000000     0.973700000000     0.428400000000     0          
C6       C      0.386700000000     0.854200000000     0.498200000000     0          
C8       C      0.448800000000     0.652700000000     0.495400000000     0          
C9       C      0.425000000000     0.790300000000     0.444600000000     0          
H3       H      0.431700000000     0.817200000000     0.411200000000     0          
C10      C      0.358100000000     0.860000000000     0.534600000000     0          
H4       H      0.347900000000     0.831200000000     0.556500000000     0          
C11      C      0.344300000000     0.909800000000     0.538500000000     0          
H5       H      0.326100000000     0.914000000000     0.568500000000     0          
C12      C      0.399100000000     0.896900000000     0.462600000000     0          
H6       H      0.418900000000     0.893500000000     0.439400000000     0          
C13      C      0.415400000000     0.719500000000     0.559000000000     0          
H7       H      0.414100000000     0.697200000000     0.602700000000     0          
C16      C      0.257300000000     0.972100000000     0.447200000000     0          
H8       H      0.246700000000     0.955100000000     0.406300000000     0          
F1       F      0.977400000000     0.166400000000     0.800600000000     0          
C21      C      0.290000000000     0.968100000000     0.452500000000     0          
H9       H      0.300300000000     0.942800000000     0.422500000000     0          
C22      C      0.399500000000     0.766100000000     0.559600000000     0          
H10      H      0.385800000000     0.773700000000     0.601100000000     0          
C23      C      0.155200000000     0.964500000000     0.457400000000     0          
H11      H      0.144700000000     0.936800000000     0.433100000000     0          
C24      C      0.189200000000     0.970200000000     0.449700000000     0          
H12      H      0.199400000000     0.952700000000     0.408700000000     0          
C25      C      0.056100000000     0.048100000000     0.284500000000     0          
F3       F      0.099300000000     0.039800000000     0.201700000000     0          
F4       F      0.069500000000     0.101500000000     0.180700000000     0          
C26      C      0.073000000000     0.059300000000     0.193700000000     0          
F5       F      0.059500000000     0.044100000000     0.149400000000     0          
Zr2      Zr     0.458690000000     0.958470000000     0.082700000000     0          
O1       O      0.032210000000     0.355300000000     0.939400000000     0          
O2       O      0.058510000000     0.379000000000     0.048600000000     0          
O3       O      0.408230000000     0.971200000000     0.051400000000     0          
O4       O      0.472900000000     0.907500000000     0.184300000000     0          
O5       O      0.459770000000     0.961600000000     0.956800000000     0          
O7       O      0.437060000000     0.006900000000     0.811900000000     0          
O9       O      0.470600000000     0.912000000000     0.807000000000     0          
C1       C      0.061200000000     0.259400000000     0.932800000000     0          
H1       H      0.049500000000     0.267500000000     0.887700000000     0          
C2       C      0.096200000000     0.197600000000     0.997900000000     0          
C3       C      0.143600000000     0.048000000000     0.000500000000     0          
C4       C      0.066400000000     0.295300000000     0.993100000000     0          
C5       C      0.115700000000     0.053700000000     0.958100000000     0          
H2       H      0.107200000000     0.026300000000     0.928400000000     0          
C6       C      0.113300000000     0.145800000000     0.998200000000     0          
C8       C      0.051200000000     0.347300000000     0.995400000000     0          
C9       C      0.075000000000     0.209700000000     0.944600000000     0          
H3       H      0.068300000000     0.182800000000     0.911200000000     0          
C10      C      0.141900000000     0.140000000000     0.034600000000     0          
H4       H      0.152100000000     0.168800000000     0.056500000000     0          
C11      C      0.155700000000     0.090200000000     0.038500000000     0          
H5       H      0.173900000000     0.086000000000     0.068500000000     0          
C12      C      0.100900000000     0.103100000000     0.962600000000     0          
H6       H      0.081100000000     0.106500000000     0.939400000000     0          
C13      C      0.084600000000     0.280500000000     0.059000000000     0          
H7       H      0.085900000000     0.302800000000     0.102700000000     0          
C16      C      0.242700000000     0.027900000000     0.947200000000     0          
H8       H      0.253300000000     0.044900000000     0.906300000000     0          
F1       F      0.522600000000     0.833600000000     0.300600000000     0          
C21      C      0.210000000000     0.031900000000     0.952500000000     0          
H9       H      0.199700000000     0.057200000000     0.922500000000     0          
C22      C      0.100500000000     0.233900000000     0.059600000000     0          
H10      H      0.114200000000     0.226300000000     0.101100000000     0          
C23      C      0.344800000000     0.035500000000     0.957400000000     0          
H11      H      0.355300000000     0.063200000000     0.933100000000     0          
C24      C      0.310800000000     0.029800000000     0.949700000000     0          
H12      H      0.300600000000     0.047300000000     0.908700000000     0          
C25      C      0.443900000000     0.951900000000     0.784500000000     0          
F3       F      0.400700000000     0.960200000000     0.701700000000     0          
F4       F      0.430500000000     0.898500000000     0.680700000000     0          
C26      C      0.427000000000     0.940700000000     0.693700000000     0          
F5       F      0.440500000000     0.955900000000     0.649400000000     0          


