data_LOBQEB

_audit_creation_method RASPA-1.0
_audit_creation_date 2020-11-2
_audit_author_name 'Rocio Bueno-Perez'

_cell_length_a    40.967
_cell_length_b    40.967
_cell_length_c    14.813
_cell_angle_alpha 90
_cell_angle_beta  90
_cell_angle_gamma 120
_cell_volume      21529.9

_symmetry_cell_setting          triclinic
_symmetry_space_group_name_Hall 'P 1'
_symmetry_space_group_name_H-M  'P 1'
_symmetry_Int_Tables_number     1

_symmetry_equiv_pos_as_xyz 'x,y,z'

loop_
_atom_site_label
_atom_site_type_symbol
_atom_site_fract_x
_atom_site_fract_y
_atom_site_fract_z
_atom_site_charge
O1       O      0.517980000000     0.100890000000     0.411000000000     0          
O2       O      0.468190000000     0.056770000000     0.332600000000     0          
C3       C      0.492500000000     0.090310000000     0.359500000000     0          
C4       C      0.486200000000     0.119490000000     0.313400000000     0          
C5       C      0.456400000000     0.111680000000     0.256300000000     0          
H6       H      0.438100000000     0.086100000000     0.245200000000     0          
C7       C      0.451900000000     0.139400000000     0.214600000000     0          
H8       H      0.432700000000     0.133500000000     0.170800000000     0          
C9       C      0.477100000000     0.176800000000     0.240300000000     0          
C10      C      0.508600000000     0.186000000000     0.297300000000     0          
H11      H      0.527100000000     0.211400000000     0.309300000000     0          
C12      C      0.510900000000     0.156640000000     0.333800000000     0          
H13      H      0.530600000000     0.162100000000     0.375500000000     0          
C14      C      0.474200000000     0.207660000000     0.189700000000     0          
C15      C      0.470800000000     0.207020000000     0.099000000000     0          
H16      H      0.467800000000     0.185400000000     0.068000000000     0          
O17      O      0.899110000000     0.417090000000     0.411000000000     0          
O18      O      0.943230000000     0.411420000000     0.332600000000     0          
C19      C      0.909690000000     0.402190000000     0.359500000000     0          
C20      C      0.880510000000     0.366710000000     0.313400000000     0          
C21      C      0.888320000000     0.344720000000     0.256300000000     0          
H22      H      0.913900000000     0.352000000000     0.245200000000     0          
C23      C      0.860600000000     0.312500000000     0.214600000000     0          
H24      H      0.866500000000     0.299200000000     0.170800000000     0          
C25      C      0.823200000000     0.300300000000     0.240300000000     0          
C26      C      0.814000000000     0.322600000000     0.297300000000     0          
H27      H      0.788600000000     0.315700000000     0.309300000000     0          
C28      C      0.843360000000     0.354260000000     0.333800000000     0          
H29      H      0.837900000000     0.368500000000     0.375500000000     0          
C30      C      0.792340000000     0.266540000000     0.189700000000     0          
C31      C      0.792980000000     0.263780000000     0.099000000000     0          
H32      H      0.814600000000     0.282400000000     0.068000000000     0          
O33      O      0.582910000000     0.482020000000     0.411000000000     0          
O34      O      0.588580000000     0.531810000000     0.332600000000     0          
C35      C      0.597810000000     0.507500000000     0.359500000000     0          
C36      C      0.633290000000     0.513800000000     0.313400000000     0          
C37      C      0.655280000000     0.543600000000     0.256300000000     0          
H38      H      0.648000000000     0.561900000000     0.245200000000     0          
C39      C      0.687500000000     0.548100000000     0.214600000000     0          
H40      H      0.700800000000     0.567300000000     0.170800000000     0          
C41      C      0.699700000000     0.522900000000     0.240300000000     0          
C42      C      0.677400000000     0.491400000000     0.297300000000     0          
H43      H      0.684300000000     0.472900000000     0.309300000000     0          
C44      C      0.645740000000     0.489100000000     0.333800000000     0          
H45      H      0.631500000000     0.469400000000     0.375500000000     0          
C46      C      0.733460000000     0.525800000000     0.189700000000     0          
C47      C      0.736220000000     0.529200000000     0.099000000000     0          
H48      H      0.717600000000     0.532200000000     0.068000000000     0          
O49      O      0.482020000000     0.899110000000     0.411000000000     0          
O50      O      0.531810000000     0.943230000000     0.332600000000     0          
C51      C      0.507500000000     0.909690000000     0.359500000000     0          
C52      C      0.513800000000     0.880510000000     0.313400000000     0          
C53      C      0.543600000000     0.888320000000     0.256300000000     0          
H54      H      0.561900000000     0.913900000000     0.245200000000     0          
C55      C      0.548100000000     0.860600000000     0.214600000000     0          
H56      H      0.567300000000     0.866500000000     0.170800000000     0          
C57      C      0.522900000000     0.823200000000     0.240300000000     0          
C58      C      0.491400000000     0.814000000000     0.297300000000     0          
H59      H      0.472900000000     0.788600000000     0.309300000000     0          
C60      C      0.489100000000     0.843360000000     0.333800000000     0          
H61      H      0.469400000000     0.837900000000     0.375500000000     0          
C62      C      0.525800000000     0.792340000000     0.189700000000     0          
C63      C      0.529200000000     0.792980000000     0.099000000000     0          
H64      H      0.532200000000     0.814600000000     0.068000000000     0          
O65      O      0.100890000000     0.582910000000     0.411000000000     0          
O66      O      0.056770000000     0.588580000000     0.332600000000     0          
C67      C      0.090310000000     0.597810000000     0.359500000000     0          
C68      C      0.119490000000     0.633290000000     0.313400000000     0          
C69      C      0.111680000000     0.655280000000     0.256300000000     0          
H70      H      0.086100000000     0.648000000000     0.245200000000     0          
C71      C      0.139400000000     0.687500000000     0.214600000000     0          
H72      H      0.133500000000     0.700800000000     0.170800000000     0          
C73      C      0.176800000000     0.699700000000     0.240300000000     0          
C74      C      0.186000000000     0.677400000000     0.297300000000     0          
H75      H      0.211400000000     0.684300000000     0.309300000000     0          
C76      C      0.156640000000     0.645740000000     0.333800000000     0          
H77      H      0.162100000000     0.631500000000     0.375500000000     0          
C78      C      0.207660000000     0.733460000000     0.189700000000     0          
C79      C      0.207020000000     0.736220000000     0.099000000000     0          
H80      H      0.185400000000     0.717600000000     0.068000000000     0          
O81      O      0.417090000000     0.517980000000     0.411000000000     0          
O82      O      0.411420000000     0.468190000000     0.332600000000     0          
C83      C      0.402190000000     0.492500000000     0.359500000000     0          
C84      C      0.366710000000     0.486200000000     0.313400000000     0          
C85      C      0.344720000000     0.456400000000     0.256300000000     0          
H86      H      0.352000000000     0.438100000000     0.245200000000     0          
C87      C      0.312500000000     0.451900000000     0.214600000000     0          
H88      H      0.299200000000     0.432700000000     0.170800000000     0          
C89      C      0.300300000000     0.477100000000     0.240300000000     0          
C90      C      0.322600000000     0.508600000000     0.297300000000     0          
H91      H      0.315700000000     0.527100000000     0.309300000000     0          
C92      C      0.354260000000     0.510900000000     0.333800000000     0          
H93      H      0.368500000000     0.530600000000     0.375500000000     0          
C94      C      0.266540000000     0.474200000000     0.189700000000     0          
C95      C      0.263780000000     0.470800000000     0.099000000000     0          
H96      H      0.282400000000     0.467800000000     0.068000000000     0          
O97      O      0.100890000000     0.517980000000     0.589000000000     0          
O98      O      0.056770000000     0.468190000000     0.667400000000     0          
C99      C      0.090310000000     0.492500000000     0.640500000000     0          
C100     C      0.119490000000     0.486200000000     0.686600000000     0          
C101     C      0.111680000000     0.456400000000     0.743700000000     0          
H102     H      0.086100000000     0.438100000000     0.754800000000     0          
C103     C      0.139400000000     0.451900000000     0.785400000000     0          
H104     H      0.133500000000     0.432700000000     0.829200000000     0          
C105     C      0.176800000000     0.477100000000     0.759700000000     0          
C106     C      0.186000000000     0.508600000000     0.702700000000     0          
H107     H      0.211400000000     0.527100000000     0.690700000000     0          
C108     C      0.156640000000     0.510900000000     0.666200000000     0          
H109     H      0.162100000000     0.530600000000     0.624500000000     0          
C110     C      0.207660000000     0.474200000000     0.810300000000     0          
C111     C      0.207020000000     0.470800000000     0.901000000000     0          
H112     H      0.185400000000     0.467800000000     0.932000000000     0          
O113     O      0.417090000000     0.899110000000     0.589000000000     0          
O114     O      0.411420000000     0.943230000000     0.667400000000     0          
C115     C      0.402190000000     0.909690000000     0.640500000000     0          
C116     C      0.366710000000     0.880510000000     0.686600000000     0          
C117     C      0.344720000000     0.888320000000     0.743700000000     0          
H118     H      0.352000000000     0.913900000000     0.754800000000     0          
C119     C      0.312500000000     0.860600000000     0.785400000000     0          
H120     H      0.299200000000     0.866500000000     0.829200000000     0          
C121     C      0.300300000000     0.823200000000     0.759700000000     0          
C122     C      0.322600000000     0.814000000000     0.702700000000     0          
H123     H      0.315700000000     0.788600000000     0.690700000000     0          
C124     C      0.354260000000     0.843360000000     0.666200000000     0          
H125     H      0.368500000000     0.837900000000     0.624500000000     0          
C126     C      0.266540000000     0.792340000000     0.810300000000     0          
C127     C      0.263780000000     0.792980000000     0.901000000000     0          
H128     H      0.282400000000     0.814600000000     0.932000000000     0          
O129     O      0.482020000000     0.582910000000     0.589000000000     0          
O130     O      0.531810000000     0.588580000000     0.667400000000     0          
C131     C      0.507500000000     0.597810000000     0.640500000000     0          
C132     C      0.513800000000     0.633290000000     0.686600000000     0          
C133     C      0.543600000000     0.655280000000     0.743700000000     0          
H134     H      0.561900000000     0.648000000000     0.754800000000     0          
C135     C      0.548100000000     0.687500000000     0.785400000000     0          
H136     H      0.567300000000     0.700800000000     0.829200000000     0          
C137     C      0.522900000000     0.699700000000     0.759700000000     0          
C138     C      0.491400000000     0.677400000000     0.702700000000     0          
H139     H      0.472900000000     0.684300000000     0.690700000000     0          
C140     C      0.489100000000     0.645740000000     0.666200000000     0          
H141     H      0.469400000000     0.631500000000     0.624500000000     0          
C142     C      0.525800000000     0.733460000000     0.810300000000     0          
C143     C      0.529200000000     0.736220000000     0.901000000000     0          
H144     H      0.532200000000     0.717600000000     0.932000000000     0          
O145     O      0.899110000000     0.482020000000     0.589000000000     0          
O146     O      0.943230000000     0.531810000000     0.667400000000     0          
C147     C      0.909690000000     0.507500000000     0.640500000000     0          
C148     C      0.880510000000     0.513800000000     0.686600000000     0          
C149     C      0.888320000000     0.543600000000     0.743700000000     0          
H150     H      0.913900000000     0.561900000000     0.754800000000     0          
C151     C      0.860600000000     0.548100000000     0.785400000000     0          
H152     H      0.866500000000     0.567300000000     0.829200000000     0          
C153     C      0.823200000000     0.522900000000     0.759700000000     0          
C154     C      0.814000000000     0.491400000000     0.702700000000     0          
H155     H      0.788600000000     0.472900000000     0.690700000000     0          
C156     C      0.843360000000     0.489100000000     0.666200000000     0          
H157     H      0.837900000000     0.469400000000     0.624500000000     0          
C158     C      0.792340000000     0.525800000000     0.810300000000     0          
C159     C      0.792980000000     0.529200000000     0.901000000000     0          
H160     H      0.814600000000     0.532200000000     0.932000000000     0          
O161     O      0.582910000000     0.100890000000     0.589000000000     0          
O162     O      0.588580000000     0.056770000000     0.667400000000     0          
C163     C      0.597810000000     0.090310000000     0.640500000000     0          
C164     C      0.633290000000     0.119490000000     0.686600000000     0          
C165     C      0.655280000000     0.111680000000     0.743700000000     0          
H166     H      0.648000000000     0.086100000000     0.754800000000     0          
C167     C      0.687500000000     0.139400000000     0.785400000000     0          
H168     H      0.700800000000     0.133500000000     0.829200000000     0          
C169     C      0.699700000000     0.176800000000     0.759700000000     0          
C170     C      0.677400000000     0.186000000000     0.702700000000     0          
H171     H      0.684300000000     0.211400000000     0.690700000000     0          
C172     C      0.645740000000     0.156640000000     0.666200000000     0          
H173     H      0.631500000000     0.162100000000     0.624500000000     0          
C174     C      0.733460000000     0.207660000000     0.810300000000     0          
C175     C      0.736220000000     0.207020000000     0.901000000000     0          
H176     H      0.717600000000     0.185400000000     0.932000000000     0          
O177     O      0.517980000000     0.417090000000     0.589000000000     0          
O178     O      0.468190000000     0.411420000000     0.667400000000     0          
C179     C      0.492500000000     0.402190000000     0.640500000000     0          
C180     C      0.486200000000     0.366710000000     0.686600000000     0          
C181     C      0.456400000000     0.344720000000     0.743700000000     0          
H182     H      0.438100000000     0.352000000000     0.754800000000     0          
C183     C      0.451900000000     0.312500000000     0.785400000000     0          
H184     H      0.432700000000     0.299200000000     0.829200000000     0          
C185     C      0.477100000000     0.300300000000     0.759700000000     0          
C186     C      0.508600000000     0.322600000000     0.702700000000     0          
H187     H      0.527100000000     0.315700000000     0.690700000000     0          
C188     C      0.510900000000     0.354260000000     0.666200000000     0          
H189     H      0.530600000000     0.368500000000     0.624500000000     0          
C190     C      0.474200000000     0.266540000000     0.810300000000     0          
C191     C      0.470800000000     0.263780000000     0.901000000000     0          
H192     H      0.467800000000     0.282400000000     0.932000000000     0          
O193     O      0.482020000000     0.899110000000     0.589000000000     0          
O194     O      0.531810000000     0.943230000000     0.667400000000     0          
C195     C      0.507500000000     0.909690000000     0.640500000000     0          
C196     C      0.513800000000     0.880510000000     0.686600000000     0          
C197     C      0.543600000000     0.888320000000     0.743700000000     0          
H198     H      0.561900000000     0.913900000000     0.754800000000     0          
C199     C      0.548100000000     0.860600000000     0.785400000000     0          
H200     H      0.567300000000     0.866500000000     0.829200000000     0          
C201     C      0.522900000000     0.823200000000     0.759700000000     0          
C202     C      0.491400000000     0.814000000000     0.702700000000     0          
H203     H      0.472900000000     0.788600000000     0.690700000000     0          
C204     C      0.489100000000     0.843360000000     0.666200000000     0          
H205     H      0.469400000000     0.837900000000     0.624500000000     0          
C206     C      0.525800000000     0.792340000000     0.810300000000     0          
C207     C      0.529200000000     0.792980000000     0.901000000000     0          
H208     H      0.532200000000     0.814600000000     0.932000000000     0          
O209     O      0.100890000000     0.582910000000     0.589000000000     0          
O210     O      0.056770000000     0.588580000000     0.667400000000     0          
C211     C      0.090310000000     0.597810000000     0.640500000000     0          
C212     C      0.119490000000     0.633290000000     0.686600000000     0          
C213     C      0.111680000000     0.655280000000     0.743700000000     0          
H214     H      0.086100000000     0.648000000000     0.754800000000     0          
C215     C      0.139400000000     0.687500000000     0.785400000000     0          
H216     H      0.133500000000     0.700800000000     0.829200000000     0          
C217     C      0.176800000000     0.699700000000     0.759700000000     0          
C218     C      0.186000000000     0.677400000000     0.702700000000     0          
H219     H      0.211400000000     0.684300000000     0.690700000000     0          
C220     C      0.156640000000     0.645740000000     0.666200000000     0          
H221     H      0.162100000000     0.631500000000     0.624500000000     0          
C222     C      0.207660000000     0.733460000000     0.810300000000     0          
C223     C      0.207020000000     0.736220000000     0.901000000000     0          
H224     H      0.185400000000     0.717600000000     0.932000000000     0          
O225     O      0.417090000000     0.517980000000     0.589000000000     0          
O226     O      0.411420000000     0.468190000000     0.667400000000     0          
C227     C      0.402190000000     0.492500000000     0.640500000000     0          
C228     C      0.366710000000     0.486200000000     0.686600000000     0          
C229     C      0.344720000000     0.456400000000     0.743700000000     0          
H230     H      0.352000000000     0.438100000000     0.754800000000     0          
C231     C      0.312500000000     0.451900000000     0.785400000000     0          
H232     H      0.299200000000     0.432700000000     0.829200000000     0          
C233     C      0.300300000000     0.477100000000     0.759700000000     0          
C234     C      0.322600000000     0.508600000000     0.702700000000     0          
H235     H      0.315700000000     0.527100000000     0.690700000000     0          
C236     C      0.354260000000     0.510900000000     0.666200000000     0          
H237     H      0.368500000000     0.530600000000     0.624500000000     0          
C238     C      0.266540000000     0.474200000000     0.810300000000     0          
C239     C      0.263780000000     0.470800000000     0.901000000000     0          
H240     H      0.282400000000     0.467800000000     0.932000000000     0          
O241     O      0.517980000000     0.100890000000     0.589000000000     0          
O242     O      0.468190000000     0.056770000000     0.667400000000     0          
C243     C      0.492500000000     0.090310000000     0.640500000000     0          
C244     C      0.486200000000     0.119490000000     0.686600000000     0          
C245     C      0.456400000000     0.111680000000     0.743700000000     0          
H246     H      0.438100000000     0.086100000000     0.754800000000     0          
C247     C      0.451900000000     0.139400000000     0.785400000000     0          
H248     H      0.432700000000     0.133500000000     0.829200000000     0          
C249     C      0.477100000000     0.176800000000     0.759700000000     0          
C250     C      0.508600000000     0.186000000000     0.702700000000     0          
H251     H      0.527100000000     0.211400000000     0.690700000000     0          
C252     C      0.510900000000     0.156640000000     0.666200000000     0          
H253     H      0.530600000000     0.162100000000     0.624500000000     0          
C254     C      0.474200000000     0.207660000000     0.810300000000     0          
C255     C      0.470800000000     0.207020000000     0.901000000000     0          
H256     H      0.467800000000     0.185400000000     0.932000000000     0          
O257     O      0.899110000000     0.417090000000     0.589000000000     0          
O258     O      0.943230000000     0.411420000000     0.667400000000     0          
C259     C      0.909690000000     0.402190000000     0.640500000000     0          
C260     C      0.880510000000     0.366710000000     0.686600000000     0          
C261     C      0.888320000000     0.344720000000     0.743700000000     0          
H262     H      0.913900000000     0.352000000000     0.754800000000     0          
C263     C      0.860600000000     0.312500000000     0.785400000000     0          
H264     H      0.866500000000     0.299200000000     0.829200000000     0          
C265     C      0.823200000000     0.300300000000     0.759700000000     0          
C266     C      0.814000000000     0.322600000000     0.702700000000     0          
H267     H      0.788600000000     0.315700000000     0.690700000000     0          
C268     C      0.843360000000     0.354260000000     0.666200000000     0          
H269     H      0.837900000000     0.368500000000     0.624500000000     0          
C270     C      0.792340000000     0.266540000000     0.810300000000     0          
C271     C      0.792980000000     0.263780000000     0.901000000000     0          
H272     H      0.814600000000     0.282400000000     0.932000000000     0          
O273     O      0.582910000000     0.482020000000     0.589000000000     0          
O274     O      0.588580000000     0.531810000000     0.667400000000     0          
C275     C      0.597810000000     0.507500000000     0.640500000000     0          
C276     C      0.633290000000     0.513800000000     0.686600000000     0          
C277     C      0.655280000000     0.543600000000     0.743700000000     0          
H278     H      0.648000000000     0.561900000000     0.754800000000     0          
C279     C      0.687500000000     0.548100000000     0.785400000000     0          
H280     H      0.700800000000     0.567300000000     0.829200000000     0          
C281     C      0.699700000000     0.522900000000     0.759700000000     0          
C282     C      0.677400000000     0.491400000000     0.702700000000     0          
H283     H      0.684300000000     0.472900000000     0.690700000000     0          
C284     C      0.645740000000     0.489100000000     0.666200000000     0          
H285     H      0.631500000000     0.469400000000     0.624500000000     0          
C286     C      0.733460000000     0.525800000000     0.810300000000     0          
C287     C      0.736220000000     0.529200000000     0.901000000000     0          
H288     H      0.717600000000     0.532200000000     0.932000000000     0          
O289     O      0.899110000000     0.482020000000     0.411000000000     0          
O290     O      0.943230000000     0.531810000000     0.332600000000     0          
C291     C      0.909690000000     0.507500000000     0.359500000000     0          
C292     C      0.880510000000     0.513800000000     0.313400000000     0          
C293     C      0.888320000000     0.543600000000     0.256300000000     0          
H294     H      0.913900000000     0.561900000000     0.245200000000     0          
C295     C      0.860600000000     0.548100000000     0.214600000000     0          
H296     H      0.866500000000     0.567300000000     0.170800000000     0          
C297     C      0.823200000000     0.522900000000     0.240300000000     0          
C298     C      0.814000000000     0.491400000000     0.297300000000     0          
H299     H      0.788600000000     0.472900000000     0.309300000000     0          
C300     C      0.843360000000     0.489100000000     0.333800000000     0          
H301     H      0.837900000000     0.469400000000     0.375500000000     0          
C302     C      0.792340000000     0.525800000000     0.189700000000     0          
C303     C      0.792980000000     0.529200000000     0.099000000000     0          
H304     H      0.814600000000     0.532200000000     0.068000000000     0          
O305     O      0.582910000000     0.100890000000     0.411000000000     0          
O306     O      0.588580000000     0.056770000000     0.332600000000     0          
C307     C      0.597810000000     0.090310000000     0.359500000000     0          
C308     C      0.633290000000     0.119490000000     0.313400000000     0          
C309     C      0.655280000000     0.111680000000     0.256300000000     0          
H310     H      0.648000000000     0.086100000000     0.245200000000     0          
C311     C      0.687500000000     0.139400000000     0.214600000000     0          
H312     H      0.700800000000     0.133500000000     0.170800000000     0          
C313     C      0.699700000000     0.176800000000     0.240300000000     0          
C314     C      0.677400000000     0.186000000000     0.297300000000     0          
H315     H      0.684300000000     0.211400000000     0.309300000000     0          
C316     C      0.645740000000     0.156640000000     0.333800000000     0          
H317     H      0.631500000000     0.162100000000     0.375500000000     0          
C318     C      0.733460000000     0.207660000000     0.189700000000     0          
C319     C      0.736220000000     0.207020000000     0.099000000000     0          
H320     H      0.717600000000     0.185400000000     0.068000000000     0          
O321     O      0.517980000000     0.417090000000     0.411000000000     0          
O322     O      0.468190000000     0.411420000000     0.332600000000     0          
C323     C      0.492500000000     0.402190000000     0.359500000000     0          
C324     C      0.486200000000     0.366710000000     0.313400000000     0          
C325     C      0.456400000000     0.344720000000     0.256300000000     0          
H326     H      0.438100000000     0.352000000000     0.245200000000     0          
C327     C      0.451900000000     0.312500000000     0.214600000000     0          
H328     H      0.432700000000     0.299200000000     0.170800000000     0          
C329     C      0.477100000000     0.300300000000     0.240300000000     0          
C330     C      0.508600000000     0.322600000000     0.297300000000     0          
H331     H      0.527100000000     0.315700000000     0.309300000000     0          
C332     C      0.510900000000     0.354260000000     0.333800000000     0          
H333     H      0.530600000000     0.368500000000     0.375500000000     0          
C334     C      0.474200000000     0.266540000000     0.189700000000     0          
C335     C      0.470800000000     0.263780000000     0.099000000000     0          
H336     H      0.467800000000     0.282400000000     0.068000000000     0          
O337     O      0.100890000000     0.517980000000     0.411000000000     0          
O338     O      0.056770000000     0.468190000000     0.332600000000     0          
C339     C      0.090310000000     0.492500000000     0.359500000000     0          
C340     C      0.119490000000     0.486200000000     0.313400000000     0          
C341     C      0.111680000000     0.456400000000     0.256300000000     0          
H342     H      0.086100000000     0.438100000000     0.245200000000     0          
C343     C      0.139400000000     0.451900000000     0.214600000000     0          
H344     H      0.133500000000     0.432700000000     0.170800000000     0          
C345     C      0.176800000000     0.477100000000     0.240300000000     0          
C346     C      0.186000000000     0.508600000000     0.297300000000     0          
H347     H      0.211400000000     0.527100000000     0.309300000000     0          
C348     C      0.156640000000     0.510900000000     0.333800000000     0          
H349     H      0.162100000000     0.530600000000     0.375500000000     0          
C350     C      0.207660000000     0.474200000000     0.189700000000     0          
C351     C      0.207020000000     0.470800000000     0.099000000000     0          
H352     H      0.185400000000     0.467800000000     0.068000000000     0          
O353     O      0.417090000000     0.899110000000     0.411000000000     0          
O354     O      0.411420000000     0.943230000000     0.332600000000     0          
C355     C      0.402190000000     0.909690000000     0.359500000000     0          
C356     C      0.366710000000     0.880510000000     0.313400000000     0          
C357     C      0.344720000000     0.888320000000     0.256300000000     0          
H358     H      0.352000000000     0.913900000000     0.245200000000     0          
C359     C      0.312500000000     0.860600000000     0.214600000000     0          
H360     H      0.299200000000     0.866500000000     0.170800000000     0          
C361     C      0.300300000000     0.823200000000     0.240300000000     0          
C362     C      0.322600000000     0.814000000000     0.297300000000     0          
H363     H      0.315700000000     0.788600000000     0.309300000000     0          
C364     C      0.354260000000     0.843360000000     0.333800000000     0          
H365     H      0.368500000000     0.837900000000     0.375500000000     0          
C366     C      0.266540000000     0.792340000000     0.189700000000     0          
C367     C      0.263780000000     0.792980000000     0.099000000000     0          
H368     H      0.282400000000     0.814600000000     0.068000000000     0          
O369     O      0.482020000000     0.582910000000     0.411000000000     0          
O370     O      0.531810000000     0.588580000000     0.332600000000     0          
C371     C      0.507500000000     0.597810000000     0.359500000000     0          
C372     C      0.513800000000     0.633290000000     0.313400000000     0          
C373     C      0.543600000000     0.655280000000     0.256300000000     0          
H374     H      0.561900000000     0.648000000000     0.245200000000     0          
C375     C      0.548100000000     0.687500000000     0.214600000000     0          
H376     H      0.567300000000     0.700800000000     0.170800000000     0          
C377     C      0.522900000000     0.699700000000     0.240300000000     0          
C378     C      0.491400000000     0.677400000000     0.297300000000     0          
H379     H      0.472900000000     0.684300000000     0.309300000000     0          
C380     C      0.489100000000     0.645740000000     0.333800000000     0          
H381     H      0.469400000000     0.631500000000     0.375500000000     0          
C382     C      0.525800000000     0.733460000000     0.189700000000     0          
C383     C      0.529200000000     0.736220000000     0.099000000000     0          
H384     H      0.532200000000     0.717600000000     0.068000000000     0          
Zr385    Zr     0.534490000000     0.068990000000     0.500000000000     0          
Zr386    Zr     0.931010000000     0.465500000000     0.500000000000     0          
Zr387    Zr     0.534490000000     0.465510000000     0.500000000000     0          
Zr388    Zr     0.465510000000     0.931010000000     0.500000000000     0          
Zr389    Zr     0.068990000000     0.534490000000     0.500000000000     0          
Zr390    Zr     0.465510000000     0.534490000000     0.500000000000     0          
O391     O      0.516720000000     0.033440000000     0.381400000000     0          
O392     O      0.966560000000     0.483280000000     0.381400000000     0          
O393     O      0.516720000000     0.483280000000     0.381400000000     0          
O394     O      0.483280000000     0.966560000000     0.381400000000     0          
O395     O      0.033440000000     0.516720000000     0.381400000000     0          
O396     O      0.483280000000     0.516720000000     0.381400000000     0          
O397     O      0.033440000000     0.516720000000     0.618600000000     0          
O398     O      0.483280000000     0.966560000000     0.618600000000     0          
O399     O      0.483280000000     0.516720000000     0.618600000000     0          
O400     O      0.966560000000     0.483280000000     0.618600000000     0          
O401     O      0.516720000000     0.033440000000     0.618600000000     0          
O402     O      0.516720000000     0.483280000000     0.618600000000     0          
O403     O      0.472770000000     0.034500000000     0.500000000000     0          
O404     O      0.965500000000     0.438270000000     0.500000000000     0          
O405     O      0.561730000000     0.527230000000     0.500000000000     0          
O406     O      0.527230000000     0.965500000000     0.500000000000     0          
O407     O      0.034500000000     0.561730000000     0.500000000000     0          
O408     O      0.438270000000     0.472770000000     0.500000000000     0          
O409     O      0.034500000000     0.472770000000     0.500000000000     0          
O410     O      0.438270000000     0.965500000000     0.500000000000     0          
O411     O      0.527230000000     0.561730000000     0.500000000000     0          
O412     O      0.965500000000     0.527230000000     0.500000000000     0          
O413     O      0.561730000000     0.034500000000     0.500000000000     0          
O414     O      0.472770000000     0.438270000000     0.500000000000     0          
N415     N      0.475100000000     0.237550000000     0.337200000000     0          
C416     C      0.472600000000     0.236300000000     0.244600000000     0          
C417     C      0.471400000000     0.235700000000     0.047900000000     0          
N418     N      0.762450000000     0.237550000000     0.337200000000     0          
C419     C      0.763700000000     0.236300000000     0.244600000000     0          
C420     C      0.764300000000     0.235700000000     0.047900000000     0          
N421     N      0.762450000000     0.524900000000     0.337200000000     0          
C422     C      0.763700000000     0.527400000000     0.244600000000     0          
C423     C      0.764300000000     0.528600000000     0.047900000000     0          
N424     N      0.524900000000     0.762450000000     0.337200000000     0          
C425     C      0.527400000000     0.763700000000     0.244600000000     0          
C426     C      0.528600000000     0.764300000000     0.047900000000     0          
N427     N      0.237550000000     0.762450000000     0.337200000000     0          
C428     C      0.236300000000     0.763700000000     0.244600000000     0          
C429     C      0.235700000000     0.764300000000     0.047900000000     0          
N430     N      0.237550000000     0.475100000000     0.337200000000     0          
C431     C      0.236300000000     0.472600000000     0.244600000000     0          
C432     C      0.235700000000     0.471400000000     0.047900000000     0          
N433     N      0.237550000000     0.475100000000     0.662800000000     0          
C434     C      0.236300000000     0.472600000000     0.755400000000     0          
C435     C      0.235700000000     0.471400000000     0.952100000000     0          
N436     N      0.237550000000     0.762450000000     0.662800000000     0          
C437     C      0.236300000000     0.763700000000     0.755400000000     0          
C438     C      0.235700000000     0.764300000000     0.952100000000     0          
N439     N      0.524900000000     0.762450000000     0.662800000000     0          
C440     C      0.527400000000     0.763700000000     0.755400000000     0          
C441     C      0.528600000000     0.764300000000     0.952100000000     0          
N442     N      0.762450000000     0.524900000000     0.662800000000     0          
C443     C      0.763700000000     0.527400000000     0.755400000000     0          
C444     C      0.764300000000     0.528600000000     0.952100000000     0          
N445     N      0.762450000000     0.237550000000     0.662800000000     0          
C446     C      0.763700000000     0.236300000000     0.755400000000     0          
C447     C      0.764300000000     0.235700000000     0.952100000000     0          
N448     N      0.475100000000     0.237550000000     0.662800000000     0          
C449     C      0.472600000000     0.236300000000     0.755400000000     0          
C450     C      0.471400000000     0.235700000000     0.952100000000     0          
O451     O      0.465100000000     0.000000000000     0.237600000000     0          
C452     C      0.470520000000     0.000000000000     0.048100000000     0          
H453     H      0.450600000000     0.000000000000     0.080800000000     0          
Zr454    Zr     0.457250000000     0.000000000000     0.381050000000     0          
O455     O      0.000000000000     0.465100000000     0.237600000000     0          
C456     C      0.000000000000     0.470520000000     0.048100000000     0          
H457     H      0.000000000000     0.450600000000     0.080800000000     0          
Zr458    Zr     0.000000000000     0.457250000000     0.381050000000     0          
O459     O      0.534900000000     0.534900000000     0.237600000000     0          
C460     C      0.529480000000     0.529480000000     0.048100000000     0          
H461     H      0.549400000000     0.549400000000     0.080800000000     0          
Zr462    Zr     0.542750000000     0.542750000000     0.381050000000     0          
O463     O      0.534900000000     0.000000000000     0.237600000000     0          
C464     C      0.529480000000     0.000000000000     0.048100000000     0          
H465     H      0.549400000000     0.000000000000     0.080800000000     0          
Zr466    Zr     0.542750000000     0.000000000000     0.381050000000     0          
O467     O      0.000000000000     0.534900000000     0.237600000000     0          
C468     C      0.000000000000     0.529480000000     0.048100000000     0          
H469     H      0.000000000000     0.549400000000     0.080800000000     0          
Zr470    Zr     0.000000000000     0.542750000000     0.381050000000     0          
O471     O      0.465100000000     0.465100000000     0.237600000000     0          
C472     C      0.470520000000     0.470520000000     0.048100000000     0          
H473     H      0.450600000000     0.450600000000     0.080800000000     0          
Zr474    Zr     0.457250000000     0.457250000000     0.381050000000     0          
O475     O      0.000000000000     0.465100000000     0.762400000000     0          
C476     C      0.000000000000     0.470520000000     0.951900000000     0          
H477     H      0.000000000000     0.450600000000     0.919200000000     0          
Zr478    Zr     0.000000000000     0.457250000000     0.618950000000     0          
O479     O      0.465100000000     0.000000000000     0.762400000000     0          
C480     C      0.470520000000     0.000000000000     0.951900000000     0          
H481     H      0.450600000000     0.000000000000     0.919200000000     0          
Zr482    Zr     0.457250000000     0.000000000000     0.618950000000     0          
O483     O      0.534900000000     0.534900000000     0.762400000000     0          
C484     C      0.529480000000     0.529480000000     0.951900000000     0          
H485     H      0.549400000000     0.549400000000     0.919200000000     0          
Zr486    Zr     0.542750000000     0.542750000000     0.618950000000     0          
O487     O      0.000000000000     0.534900000000     0.762400000000     0          
C488     C      0.000000000000     0.529480000000     0.951900000000     0          
H489     H      0.000000000000     0.549400000000     0.919200000000     0          
Zr490    Zr     0.000000000000     0.542750000000     0.618950000000     0          
O491     O      0.534900000000     0.000000000000     0.762400000000     0          
C492     C      0.529480000000     0.000000000000     0.951900000000     0          
H493     H      0.549400000000     0.000000000000     0.919200000000     0          
Zr494    Zr     0.542750000000     0.000000000000     0.618950000000     0          
O495     O      0.465100000000     0.465100000000     0.762400000000     0          
C496     C      0.470520000000     0.470520000000     0.951900000000     0          
H497     H      0.450600000000     0.450600000000     0.919200000000     0          
Zr498    Zr     0.457250000000     0.457250000000     0.618950000000     0          
C499     C      0.500000000000     0.000000000000     0.195100000000     0          
C500     C      0.500000000000     0.000000000000     0.092800000000     0          
C501     C      0.000000000000     0.500000000000     0.195100000000     0          
C502     C      0.000000000000     0.500000000000     0.092800000000     0          
C503     C      0.500000000000     0.500000000000     0.195100000000     0          
C504     C      0.500000000000     0.500000000000     0.092800000000     0          
C505     C      0.000000000000     0.500000000000     0.804900000000     0          
C506     C      0.000000000000     0.500000000000     0.907200000000     0          
C507     C      0.500000000000     0.000000000000     0.804900000000     0          
C508     C      0.500000000000     0.000000000000     0.907200000000     0          
C509     C      0.500000000000     0.500000000000     0.804900000000     0          
C510     C      0.500000000000     0.500000000000     0.907200000000     0          
H511     H      0.507900000000     0.775200000000     0.359600000000     0          
H512     H      0.553600000000     0.778450000000     0.366680000000     0          
H513     H      0.540560000000     0.791530000000     0.635350000000     0          
H514     H      0.494850000000     0.749070000000     0.642420000000     0          
H515     H      0.251700000000     0.746510000000     0.357570000000     0          
H516     H      0.208420000000     0.748260000000     0.364540000000     0          
H517     H      0.223890000000     0.732650000000     0.640270000000     0          
H518     H      0.267360000000     0.777630000000     0.640040000000     0          
H519     H      0.488820000000     0.221510000000     0.360110000000     0          
H520     H      0.446400000000     0.224840000000     0.366680000000     0          
H521     H      0.462730000000     0.208460000000     0.635850000000     0          
H522     H      0.505150000000     0.254220000000     0.642420000000     0          
H523     H      0.746640000000     0.251840000000     0.357570000000     0          
H524     H      0.791580000000     0.253400000000     0.364290000000     0          
H525     H      0.746460000000     0.538040000000     0.364270000000     0          
H526     H      0.791580000000     0.539830000000     0.364540000000     0          
H527     H      0.777580000000     0.553650000000     0.633320000000     0          
H528     H      0.732640000000     0.510270000000     0.640040000000     0          
H529     H      0.777770000000     0.267350000000     0.640010000000     0          
H530     H      0.732650000000     0.224030000000     0.640290000000     0          
H531     H      0.251890000000     0.460300000000     0.364520000000     0          
H532     H      0.208420000000     0.461820000000     0.364290000000     0          
H533     H      0.224080000000     0.446360000000     0.633320000000     0          
H534     H      0.267350000000     0.491380000000     0.640290000000     0          


