data_MERGIC

_audit_creation_method RASPA-1.0
_audit_creation_date 2020-11-2
_audit_author_name 'Rocio Bueno-Perez'

_cell_length_a    38.672
_cell_length_b    38.672
_cell_length_c    38.672
_cell_angle_alpha 90
_cell_angle_beta  90
_cell_angle_gamma 90
_cell_volume      57834.9

_symmetry_cell_setting          cubic
_symmetry_space_group_name_Hall 'P 1'
_symmetry_space_group_name_H-M  'P 1'
_symmetry_Int_Tables_number     1

_symmetry_equiv_pos_as_xyz 'x,y,z'

loop_
_atom_site_label
_atom_site_type_symbol
_atom_site_fract_x
_atom_site_fract_y
_atom_site_fract_z
_atom_site_charge
O1       O      0.328300000000     0.277240000000     0.184430000000     0          
C1       C      0.482510000000     0.248300000000     0.108640000000     0          
H1       H      0.467800000000     0.247600000000     0.128300000000     0          
C2       C      0.471990000000     0.249600000000     0.073300000000     0          
C5       C      0.392280000000     0.220600000000     0.096650000000     0          
H2       H      0.397400000000     0.200200000000     0.084000000000     0          
C6       C      0.366060000000     0.219990000000     0.122350000000     0          
H3       H      0.353300000000     0.199500000000     0.127000000000     0          
Zr1      Zr     0.285050000000     0.285050000000     0.222630000000     0          
O3       O      0.256980000000     0.256980000000     0.196460000000     0          
Zr2?     Zr     0.295940000000     0.295940000000     0.226880000000     0          
O4       O      0.280910000000     0.280910000000     0.280910000000     0          
N1       N      0.500000000000     0.250200000000     0.051680000000     0          
C3       C      0.437350000000     0.250000000000     0.062650000000     0          
C4       C      0.410120000000     0.250000000000     0.089880000000     0          
C7       C      0.359770000000     0.250000000000     0.140230000000     0          
C8       C      0.332130000000     0.250000000000     0.167870000000     0          
Mn1      Mn     0.500000000000     0.250000000000     0.000000000000     0          
O1       O      0.722760000000     0.328300000000     0.184430000000     0          
C1       C      0.751700000000     0.482510000000     0.108640000000     0          
H1       H      0.752400000000     0.467800000000     0.128300000000     0          
C2       C      0.750400000000     0.471990000000     0.073300000000     0          
C5       C      0.779400000000     0.392280000000     0.096650000000     0          
H2       H      0.799800000000     0.397400000000     0.084000000000     0          
C6       C      0.780010000000     0.366060000000     0.122350000000     0          
H3       H      0.800500000000     0.353300000000     0.127000000000     0          
Zr1      Zr     0.714950000000     0.285050000000     0.222630000000     0          
O3       O      0.743020000000     0.256980000000     0.196460000000     0          
Zr2?     Zr     0.704060000000     0.295940000000     0.226880000000     0          
O4       O      0.719090000000     0.280910000000     0.280910000000     0          
N1       N      0.749800000000     0.500000000000     0.051680000000     0          
C3       C      0.750000000000     0.437350000000     0.062650000000     0          
C4       C      0.750000000000     0.410120000000     0.089880000000     0          
C7       C      0.750000000000     0.359770000000     0.140230000000     0          
C8       C      0.750000000000     0.332130000000     0.167870000000     0          
Mn1      Mn     0.750000000000     0.500000000000     0.000000000000     0          
O1       O      0.671700000000     0.722760000000     0.184430000000     0          
C1       C      0.517490000000     0.751700000000     0.108640000000     0          
H1       H      0.532200000000     0.752400000000     0.128300000000     0          
C2       C      0.528010000000     0.750400000000     0.073300000000     0          
C5       C      0.607720000000     0.779400000000     0.096650000000     0          
H2       H      0.602600000000     0.799800000000     0.084000000000     0          
C6       C      0.633940000000     0.780010000000     0.122350000000     0          
H3       H      0.646700000000     0.800500000000     0.127000000000     0          
Zr1      Zr     0.714950000000     0.714950000000     0.222630000000     0          
O3       O      0.743020000000     0.743020000000     0.196460000000     0          
Zr2?     Zr     0.704060000000     0.704060000000     0.226880000000     0          
O4       O      0.719090000000     0.719090000000     0.280910000000     0          
N1       N      0.500000000000     0.749800000000     0.051680000000     0          
C3       C      0.562650000000     0.750000000000     0.062650000000     0          
C4       C      0.589880000000     0.750000000000     0.089880000000     0          
C7       C      0.640230000000     0.750000000000     0.140230000000     0          
C8       C      0.667870000000     0.750000000000     0.167870000000     0          
Mn1      Mn     0.500000000000     0.750000000000     0.000000000000     0          
O1       O      0.277240000000     0.671700000000     0.184430000000     0          
C1       C      0.248300000000     0.517490000000     0.108640000000     0          
H1       H      0.247600000000     0.532200000000     0.128300000000     0          
C2       C      0.249600000000     0.528010000000     0.073300000000     0          
C5       C      0.220600000000     0.607720000000     0.096650000000     0          
H2       H      0.200200000000     0.602600000000     0.084000000000     0          
C6       C      0.219990000000     0.633940000000     0.122350000000     0          
H3       H      0.199500000000     0.646700000000     0.127000000000     0          
Zr1      Zr     0.285050000000     0.714950000000     0.222630000000     0          
O3       O      0.256980000000     0.743020000000     0.196460000000     0          
Zr2?     Zr     0.295940000000     0.704060000000     0.226880000000     0          
O4       O      0.280910000000     0.719090000000     0.280910000000     0          
N1       N      0.250200000000     0.500000000000     0.051680000000     0          
C3       C      0.250000000000     0.562650000000     0.062650000000     0          
C4       C      0.250000000000     0.589880000000     0.089880000000     0          
C7       C      0.250000000000     0.640230000000     0.140230000000     0          
C8       C      0.250000000000     0.667870000000     0.167870000000     0          
Mn1      Mn     0.250000000000     0.500000000000     0.000000000000     0          
O1       O      0.328300000000     0.722760000000     0.815570000000     0          
C1       C      0.482510000000     0.751700000000     0.891360000000     0          
H1       H      0.467800000000     0.752400000000     0.871700000000     0          
C2       C      0.471990000000     0.750400000000     0.926700000000     0          
C5       C      0.392280000000     0.779400000000     0.903350000000     0          
H2       H      0.397400000000     0.799800000000     0.916000000000     0          
C6       C      0.366060000000     0.780010000000     0.877650000000     0          
H3       H      0.353300000000     0.800500000000     0.873000000000     0          
Zr1      Zr     0.285050000000     0.714950000000     0.777370000000     0          
O3       O      0.256980000000     0.743020000000     0.803540000000     0          
Zr2?     Zr     0.295940000000     0.704060000000     0.773120000000     0          
O4       O      0.280910000000     0.719090000000     0.719090000000     0          
N1       N      0.500000000000     0.749800000000     0.948320000000     0          
C3       C      0.437350000000     0.750000000000     0.937350000000     0          
C4       C      0.410120000000     0.750000000000     0.910120000000     0          
C7       C      0.359770000000     0.750000000000     0.859770000000     0          
C8       C      0.332130000000     0.750000000000     0.832130000000     0          
O1       O      0.277240000000     0.328300000000     0.815570000000     0          
C1       C      0.248300000000     0.482510000000     0.891360000000     0          
H1       H      0.247600000000     0.467800000000     0.871700000000     0          
C2       C      0.249600000000     0.471990000000     0.926700000000     0          
C5       C      0.220600000000     0.392280000000     0.903350000000     0          
H2       H      0.200200000000     0.397400000000     0.916000000000     0          
C6       C      0.219990000000     0.366060000000     0.877650000000     0          
H3       H      0.199500000000     0.353300000000     0.873000000000     0          
Zr1      Zr     0.285050000000     0.285050000000     0.777370000000     0          
O3       O      0.256980000000     0.256980000000     0.803540000000     0          
Zr2?     Zr     0.295940000000     0.295940000000     0.773120000000     0          
O4       O      0.280910000000     0.280910000000     0.719090000000     0          
N1       N      0.250200000000     0.500000000000     0.948320000000     0          
C3       C      0.250000000000     0.437350000000     0.937350000000     0          
C4       C      0.250000000000     0.410120000000     0.910120000000     0          
C7       C      0.250000000000     0.359770000000     0.859770000000     0          
C8       C      0.250000000000     0.332130000000     0.832130000000     0          
O1       O      0.671700000000     0.277240000000     0.815570000000     0          
C1       C      0.517490000000     0.248300000000     0.891360000000     0          
H1       H      0.532200000000     0.247600000000     0.871700000000     0          
C2       C      0.528010000000     0.249600000000     0.926700000000     0          
C5       C      0.607720000000     0.220600000000     0.903350000000     0          
H2       H      0.602600000000     0.200200000000     0.916000000000     0          
C6       C      0.633940000000     0.219990000000     0.877650000000     0          
H3       H      0.646700000000     0.199500000000     0.873000000000     0          
Zr1      Zr     0.714950000000     0.285050000000     0.777370000000     0          
O3       O      0.743020000000     0.256980000000     0.803540000000     0          
Zr2?     Zr     0.704060000000     0.295940000000     0.773120000000     0          
O4       O      0.719090000000     0.280910000000     0.719090000000     0          
N1       N      0.500000000000     0.250200000000     0.948320000000     0          
C3       C      0.562650000000     0.250000000000     0.937350000000     0          
C4       C      0.589880000000     0.250000000000     0.910120000000     0          
C7       C      0.640230000000     0.250000000000     0.859770000000     0          
C8       C      0.667870000000     0.250000000000     0.832130000000     0          
O1       O      0.722760000000     0.671700000000     0.815570000000     0          
C1       C      0.751700000000     0.517490000000     0.891360000000     0          
H1       H      0.752400000000     0.532200000000     0.871700000000     0          
C2       C      0.750400000000     0.528010000000     0.926700000000     0          
C5       C      0.779400000000     0.607720000000     0.903350000000     0          
H2       H      0.799800000000     0.602600000000     0.916000000000     0          
C6       C      0.780010000000     0.633940000000     0.877650000000     0          
H3       H      0.800500000000     0.646700000000     0.873000000000     0          
Zr1      Zr     0.714950000000     0.714950000000     0.777370000000     0          
O3       O      0.743020000000     0.743020000000     0.803540000000     0          
Zr2?     Zr     0.704060000000     0.704060000000     0.773120000000     0          
O4       O      0.719090000000     0.719090000000     0.719090000000     0          
N1       N      0.749800000000     0.500000000000     0.948320000000     0          
C3       C      0.750000000000     0.562650000000     0.937350000000     0          
C4       C      0.750000000000     0.589880000000     0.910120000000     0          
C7       C      0.750000000000     0.640230000000     0.859770000000     0          
C8       C      0.750000000000     0.667870000000     0.832130000000     0          
O1       O      0.184430000000     0.328300000000     0.277240000000     0          
C1       C      0.108640000000     0.482510000000     0.248300000000     0          
H1       H      0.128300000000     0.467800000000     0.247600000000     0          
C2       C      0.073300000000     0.471990000000     0.249600000000     0          
C5       C      0.096650000000     0.392280000000     0.220600000000     0          
H2       H      0.084000000000     0.397400000000     0.200200000000     0          
C6       C      0.122350000000     0.366060000000     0.219990000000     0          
H3       H      0.127000000000     0.353300000000     0.199500000000     0          
Zr1      Zr     0.222630000000     0.285050000000     0.285050000000     0          
O3       O      0.196460000000     0.256980000000     0.256980000000     0          
Zr2?     Zr     0.226880000000     0.295940000000     0.295940000000     0          
N1       N      0.051680000000     0.500000000000     0.250200000000     0          
C3       C      0.062650000000     0.437350000000     0.250000000000     0          
C4       C      0.089880000000     0.410120000000     0.250000000000     0          
C7       C      0.140230000000     0.359770000000     0.250000000000     0          
C8       C      0.167870000000     0.332130000000     0.250000000000     0          
Mn1      Mn     0.000000000000     0.500000000000     0.250000000000     0          
O1       O      0.671700000000     0.184430000000     0.277240000000     0          
C1       C      0.517490000000     0.108640000000     0.248300000000     0          
H1       H      0.532200000000     0.128300000000     0.247600000000     0          
C2       C      0.528010000000     0.073300000000     0.249600000000     0          
C5       C      0.607720000000     0.096650000000     0.220600000000     0          
H2       H      0.602600000000     0.084000000000     0.200200000000     0          
C6       C      0.633940000000     0.122350000000     0.219990000000     0          
H3       H      0.646700000000     0.127000000000     0.199500000000     0          
Zr1      Zr     0.714950000000     0.222630000000     0.285050000000     0          
O3       O      0.743020000000     0.196460000000     0.256980000000     0          
Zr2?     Zr     0.704060000000     0.226880000000     0.295940000000     0          
N1       N      0.500000000000     0.051680000000     0.250200000000     0          
C3       C      0.562650000000     0.062650000000     0.250000000000     0          
C4       C      0.589880000000     0.089880000000     0.250000000000     0          
C7       C      0.640230000000     0.140230000000     0.250000000000     0          
C8       C      0.667870000000     0.167870000000     0.250000000000     0          
Mn1      Mn     0.500000000000     0.000000000000     0.250000000000     0          
O1       O      0.815570000000     0.671700000000     0.277240000000     0          
C1       C      0.891360000000     0.517490000000     0.248300000000     0          
H1       H      0.871700000000     0.532200000000     0.247600000000     0          
C2       C      0.926700000000     0.528010000000     0.249600000000     0          
C5       C      0.903350000000     0.607720000000     0.220600000000     0          
H2       H      0.916000000000     0.602600000000     0.200200000000     0          
C6       C      0.877650000000     0.633940000000     0.219990000000     0          
H3       H      0.873000000000     0.646700000000     0.199500000000     0          
Zr1      Zr     0.777370000000     0.714950000000     0.285050000000     0          
O3       O      0.803540000000     0.743020000000     0.256980000000     0          
Zr2?     Zr     0.773120000000     0.704060000000     0.295940000000     0          
N1       N      0.948320000000     0.500000000000     0.250200000000     0          
C3       C      0.937350000000     0.562650000000     0.250000000000     0          
C4       C      0.910120000000     0.589880000000     0.250000000000     0          
C7       C      0.859770000000     0.640230000000     0.250000000000     0          
C8       C      0.832130000000     0.667870000000     0.250000000000     0          
O1       O      0.328300000000     0.815570000000     0.277240000000     0          
C1       C      0.482510000000     0.891360000000     0.248300000000     0          
H1       H      0.467800000000     0.871700000000     0.247600000000     0          
C2       C      0.471990000000     0.926700000000     0.249600000000     0          
C5       C      0.392280000000     0.903350000000     0.220600000000     0          
H2       H      0.397400000000     0.916000000000     0.200200000000     0          
C6       C      0.366060000000     0.877650000000     0.219990000000     0          
H3       H      0.353300000000     0.873000000000     0.199500000000     0          
Zr1      Zr     0.285050000000     0.777370000000     0.285050000000     0          
O3       O      0.256980000000     0.803540000000     0.256980000000     0          
Zr2?     Zr     0.295940000000     0.773120000000     0.295940000000     0          
N1       N      0.500000000000     0.948320000000     0.250200000000     0          
C3       C      0.437350000000     0.937350000000     0.250000000000     0          
C4       C      0.410120000000     0.910120000000     0.250000000000     0          
C7       C      0.359770000000     0.859770000000     0.250000000000     0          
C8       C      0.332130000000     0.832130000000     0.250000000000     0          
O1       O      0.184430000000     0.671700000000     0.722760000000     0          
C1       C      0.108640000000     0.517490000000     0.751700000000     0          
H1       H      0.128300000000     0.532200000000     0.752400000000     0          
C2       C      0.073300000000     0.528010000000     0.750400000000     0          
C5       C      0.096650000000     0.607720000000     0.779400000000     0          
H2       H      0.084000000000     0.602600000000     0.799800000000     0          
C6       C      0.122350000000     0.633940000000     0.780010000000     0          
H3       H      0.127000000000     0.646700000000     0.800500000000     0          
Zr1      Zr     0.222630000000     0.714950000000     0.714950000000     0          
O3       O      0.196460000000     0.743020000000     0.743020000000     0          
Zr2?     Zr     0.226880000000     0.704060000000     0.704060000000     0          
N1       N      0.051680000000     0.500000000000     0.749800000000     0          
C3       C      0.062650000000     0.562650000000     0.750000000000     0          
C4       C      0.089880000000     0.589880000000     0.750000000000     0          
C7       C      0.140230000000     0.640230000000     0.750000000000     0          
C8       C      0.167870000000     0.667870000000     0.750000000000     0          
Mn1      Mn     0.000000000000     0.500000000000     0.750000000000     0          
O1       O      0.328300000000     0.184430000000     0.722760000000     0          
C1       C      0.482510000000     0.108640000000     0.751700000000     0          
H1       H      0.467800000000     0.128300000000     0.752400000000     0          
C2       C      0.471990000000     0.073300000000     0.750400000000     0          
C5       C      0.392280000000     0.096650000000     0.779400000000     0          
H2       H      0.397400000000     0.084000000000     0.799800000000     0          
C6       C      0.366060000000     0.122350000000     0.780010000000     0          
H3       H      0.353300000000     0.127000000000     0.800500000000     0          
Zr1      Zr     0.285050000000     0.222630000000     0.714950000000     0          
O3       O      0.256980000000     0.196460000000     0.743020000000     0          
Zr2?     Zr     0.295940000000     0.226880000000     0.704060000000     0          
N1       N      0.500000000000     0.051680000000     0.749800000000     0          
C3       C      0.437350000000     0.062650000000     0.750000000000     0          
C4       C      0.410120000000     0.089880000000     0.750000000000     0          
C7       C      0.359770000000     0.140230000000     0.750000000000     0          
C8       C      0.332130000000     0.167870000000     0.750000000000     0          
Mn1      Mn     0.500000000000     0.000000000000     0.750000000000     0          
O1       O      0.815570000000     0.328300000000     0.722760000000     0          
C1       C      0.891360000000     0.482510000000     0.751700000000     0          
H1       H      0.871700000000     0.467800000000     0.752400000000     0          
C2       C      0.926700000000     0.471990000000     0.750400000000     0          
C5       C      0.903350000000     0.392280000000     0.779400000000     0          
H2       H      0.916000000000     0.397400000000     0.799800000000     0          
C6       C      0.877650000000     0.366060000000     0.780010000000     0          
H3       H      0.873000000000     0.353300000000     0.800500000000     0          
Zr1      Zr     0.777370000000     0.285050000000     0.714950000000     0          
O3       O      0.803540000000     0.256980000000     0.743020000000     0          
Zr2?     Zr     0.773120000000     0.295940000000     0.704060000000     0          
N1       N      0.948320000000     0.500000000000     0.749800000000     0          
C3       C      0.937350000000     0.437350000000     0.750000000000     0          
C4       C      0.910120000000     0.410120000000     0.750000000000     0          
C7       C      0.859770000000     0.359770000000     0.750000000000     0          
C8       C      0.832130000000     0.332130000000     0.750000000000     0          
O1       O      0.671700000000     0.815570000000     0.722760000000     0          
C1       C      0.517490000000     0.891360000000     0.751700000000     0          
H1       H      0.532200000000     0.871700000000     0.752400000000     0          
C2       C      0.528010000000     0.926700000000     0.750400000000     0          
C5       C      0.607720000000     0.903350000000     0.779400000000     0          
H2       H      0.602600000000     0.916000000000     0.799800000000     0          
C6       C      0.633940000000     0.877650000000     0.780010000000     0          
H3       H      0.646700000000     0.873000000000     0.800500000000     0          
Zr1      Zr     0.714950000000     0.777370000000     0.714950000000     0          
O3       O      0.743020000000     0.803540000000     0.743020000000     0          
Zr2?     Zr     0.704060000000     0.773120000000     0.704060000000     0          
N1       N      0.500000000000     0.948320000000     0.749800000000     0          
C3       C      0.562650000000     0.937350000000     0.750000000000     0          
C4       C      0.589880000000     0.910120000000     0.750000000000     0          
C7       C      0.640230000000     0.859770000000     0.750000000000     0          
C8       C      0.667870000000     0.832130000000     0.750000000000     0          
O1       O      0.277240000000     0.184430000000     0.328300000000     0          
C1       C      0.248300000000     0.108640000000     0.482510000000     0          
H1       H      0.247600000000     0.128300000000     0.467800000000     0          
C2       C      0.249600000000     0.073300000000     0.471990000000     0          
C5       C      0.220600000000     0.096650000000     0.392280000000     0          
H2       H      0.200200000000     0.084000000000     0.397400000000     0          
C6       C      0.219990000000     0.122350000000     0.366060000000     0          
H3       H      0.199500000000     0.127000000000     0.353300000000     0          
Zr1      Zr     0.285050000000     0.222630000000     0.285050000000     0          
O3       O      0.256980000000     0.196460000000     0.256980000000     0          
Zr2?     Zr     0.295940000000     0.226880000000     0.295940000000     0          
N1       N      0.250200000000     0.051680000000     0.500000000000     0          
C3       C      0.250000000000     0.062650000000     0.437350000000     0          
C4       C      0.250000000000     0.089880000000     0.410120000000     0          
C7       C      0.250000000000     0.140230000000     0.359770000000     0          
C8       C      0.250000000000     0.167870000000     0.332130000000     0          
Mn1      Mn     0.250000000000     0.000000000000     0.500000000000     0          
O1       O      0.277240000000     0.815570000000     0.671700000000     0          
C1       C      0.248300000000     0.891360000000     0.517490000000     0          
H1       H      0.247600000000     0.871700000000     0.532200000000     0          
C2       C      0.249600000000     0.926700000000     0.528010000000     0          
C5       C      0.220600000000     0.903350000000     0.607720000000     0          
H2       H      0.200200000000     0.916000000000     0.602600000000     0          
C6       C      0.219990000000     0.877650000000     0.633940000000     0          
H3       H      0.199500000000     0.873000000000     0.646700000000     0          
Zr1      Zr     0.285050000000     0.777370000000     0.714950000000     0          
O3       O      0.256980000000     0.803540000000     0.743020000000     0          
Zr2?     Zr     0.295940000000     0.773120000000     0.704060000000     0          
N1       N      0.250200000000     0.948320000000     0.500000000000     0          
C3       C      0.250000000000     0.937350000000     0.562650000000     0          
C4       C      0.250000000000     0.910120000000     0.589880000000     0          
C7       C      0.250000000000     0.859770000000     0.640230000000     0          
C8       C      0.250000000000     0.832130000000     0.667870000000     0          
O1       O      0.184430000000     0.277240000000     0.671700000000     0          
C1       C      0.108640000000     0.248300000000     0.517490000000     0          
H1       H      0.128300000000     0.247600000000     0.532200000000     0          
C2       C      0.073300000000     0.249600000000     0.528010000000     0          
C5       C      0.096650000000     0.220600000000     0.607720000000     0          
H2       H      0.084000000000     0.200200000000     0.602600000000     0          
C6       C      0.122350000000     0.219990000000     0.633940000000     0          
H3       H      0.127000000000     0.199500000000     0.646700000000     0          
Zr1      Zr     0.222630000000     0.285050000000     0.714950000000     0          
O3       O      0.196460000000     0.256980000000     0.743020000000     0          
Zr2?     Zr     0.226880000000     0.295940000000     0.704060000000     0          
N1       N      0.051680000000     0.250200000000     0.500000000000     0          
C3       C      0.062650000000     0.250000000000     0.562650000000     0          
C4       C      0.089880000000     0.250000000000     0.589880000000     0          
C7       C      0.140230000000     0.250000000000     0.640230000000     0          
C8       C      0.167870000000     0.250000000000     0.667870000000     0          
Mn1      Mn     0.000000000000     0.250000000000     0.500000000000     0          
O1       O      0.722760000000     0.184430000000     0.671700000000     0          
C1       C      0.751700000000     0.108640000000     0.517490000000     0          
H1       H      0.752400000000     0.128300000000     0.532200000000     0          
C2       C      0.750400000000     0.073300000000     0.528010000000     0          
C5       C      0.779400000000     0.096650000000     0.607720000000     0          
H2       H      0.799800000000     0.084000000000     0.602600000000     0          
C6       C      0.780010000000     0.122350000000     0.633940000000     0          
H3       H      0.800500000000     0.127000000000     0.646700000000     0          
Zr1      Zr     0.714950000000     0.222630000000     0.714950000000     0          
O3       O      0.743020000000     0.196460000000     0.743020000000     0          
Zr2?     Zr     0.704060000000     0.226880000000     0.704060000000     0          
N1       N      0.749800000000     0.051680000000     0.500000000000     0          
C3       C      0.750000000000     0.062650000000     0.562650000000     0          
C4       C      0.750000000000     0.089880000000     0.589880000000     0          
C7       C      0.750000000000     0.140230000000     0.640230000000     0          
C8       C      0.750000000000     0.167870000000     0.667870000000     0          
Mn1      Mn     0.750000000000     0.000000000000     0.500000000000     0          
O1       O      0.815570000000     0.722760000000     0.671700000000     0          
C1       C      0.891360000000     0.751700000000     0.517490000000     0          
H1       H      0.871700000000     0.752400000000     0.532200000000     0          
C2       C      0.926700000000     0.750400000000     0.528010000000     0          
C5       C      0.903350000000     0.779400000000     0.607720000000     0          
H2       H      0.916000000000     0.799800000000     0.602600000000     0          
C6       C      0.877650000000     0.780010000000     0.633940000000     0          
H3       H      0.873000000000     0.800500000000     0.646700000000     0          
Zr1      Zr     0.777370000000     0.714950000000     0.714950000000     0          
O3       O      0.803540000000     0.743020000000     0.743020000000     0          
Zr2?     Zr     0.773120000000     0.704060000000     0.704060000000     0          
N1       N      0.948320000000     0.749800000000     0.500000000000     0          
C3       C      0.937350000000     0.750000000000     0.562650000000     0          
C4       C      0.910120000000     0.750000000000     0.589880000000     0          
C7       C      0.859770000000     0.750000000000     0.640230000000     0          
C8       C      0.832130000000     0.750000000000     0.667870000000     0          
Mn1      Mn     0.000000000000     0.750000000000     0.500000000000     0          
O1       O      0.722760000000     0.815570000000     0.328300000000     0          
C1       C      0.751700000000     0.891360000000     0.482510000000     0          
H1       H      0.752400000000     0.871700000000     0.467800000000     0          
C2       C      0.750400000000     0.926700000000     0.471990000000     0          
C5       C      0.779400000000     0.903350000000     0.392280000000     0          
H2       H      0.799800000000     0.916000000000     0.397400000000     0          
C6       C      0.780010000000     0.877650000000     0.366060000000     0          
H3       H      0.800500000000     0.873000000000     0.353300000000     0          
Zr1      Zr     0.714950000000     0.777370000000     0.285050000000     0          
O3       O      0.743020000000     0.803540000000     0.256980000000     0          
Zr2?     Zr     0.704060000000     0.773120000000     0.295940000000     0          
N1       N      0.749800000000     0.948320000000     0.500000000000     0          
C3       C      0.750000000000     0.937350000000     0.437350000000     0          
C4       C      0.750000000000     0.910120000000     0.410120000000     0          
C7       C      0.750000000000     0.859770000000     0.359770000000     0          
C8       C      0.750000000000     0.832130000000     0.332130000000     0          
O1       O      0.184430000000     0.722760000000     0.328300000000     0          
C1       C      0.108640000000     0.751700000000     0.482510000000     0          
H1       H      0.128300000000     0.752400000000     0.467800000000     0          
C2       C      0.073300000000     0.750400000000     0.471990000000     0          
C5       C      0.096650000000     0.779400000000     0.392280000000     0          
H2       H      0.084000000000     0.799800000000     0.397400000000     0          
C6       C      0.122350000000     0.780010000000     0.366060000000     0          
H3       H      0.127000000000     0.800500000000     0.353300000000     0          
Zr1      Zr     0.222630000000     0.714950000000     0.285050000000     0          
O3       O      0.196460000000     0.743020000000     0.256980000000     0          
Zr2?     Zr     0.226880000000     0.704060000000     0.295940000000     0          
N1       N      0.051680000000     0.749800000000     0.500000000000     0          
C3       C      0.062650000000     0.750000000000     0.437350000000     0          
C4       C      0.089880000000     0.750000000000     0.410120000000     0          
C7       C      0.140230000000     0.750000000000     0.359770000000     0          
C8       C      0.167870000000     0.750000000000     0.332130000000     0          
O1       O      0.815570000000     0.277240000000     0.328300000000     0          
C1       C      0.891360000000     0.248300000000     0.482510000000     0          
H1       H      0.871700000000     0.247600000000     0.467800000000     0          
C2       C      0.926700000000     0.249600000000     0.471990000000     0          
C5       C      0.903350000000     0.220600000000     0.392280000000     0          
H2       H      0.916000000000     0.200200000000     0.397400000000     0          
C6       C      0.877650000000     0.219990000000     0.366060000000     0          
H3       H      0.873000000000     0.199500000000     0.353300000000     0          
Zr1      Zr     0.777370000000     0.285050000000     0.285050000000     0          
O3       O      0.803540000000     0.256980000000     0.256980000000     0          
Zr2?     Zr     0.773120000000     0.295940000000     0.295940000000     0          
N1       N      0.948320000000     0.250200000000     0.500000000000     0          
C3       C      0.937350000000     0.250000000000     0.437350000000     0          
C4       C      0.910120000000     0.250000000000     0.410120000000     0          
C7       C      0.859770000000     0.250000000000     0.359770000000     0          
C8       C      0.832130000000     0.250000000000     0.332130000000     0          
O1       O      0.671700000000     0.722760000000     0.815570000000     0          
C1       C      0.517490000000     0.751700000000     0.891360000000     0          
H1       H      0.532200000000     0.752400000000     0.871700000000     0          
C2       C      0.528010000000     0.750400000000     0.926700000000     0          
C5       C      0.607720000000     0.779400000000     0.903350000000     0          
H2       H      0.602600000000     0.799800000000     0.916000000000     0          
C6       C      0.633940000000     0.780010000000     0.877650000000     0          
H3       H      0.646700000000     0.800500000000     0.873000000000     0          
C3       C      0.562650000000     0.750000000000     0.937350000000     0          
C4       C      0.589880000000     0.750000000000     0.910120000000     0          
C7       C      0.640230000000     0.750000000000     0.859770000000     0          
C8       C      0.667870000000     0.750000000000     0.832130000000     0          
O1       O      0.277240000000     0.671700000000     0.815570000000     0          
C1       C      0.248300000000     0.517490000000     0.891360000000     0          
H1       H      0.247600000000     0.532200000000     0.871700000000     0          
C2       C      0.249600000000     0.528010000000     0.926700000000     0          
C5       C      0.220600000000     0.607720000000     0.903350000000     0          
H2       H      0.200200000000     0.602600000000     0.916000000000     0          
C6       C      0.219990000000     0.633940000000     0.877650000000     0          
H3       H      0.199500000000     0.646700000000     0.873000000000     0          
C3       C      0.250000000000     0.562650000000     0.937350000000     0          
C4       C      0.250000000000     0.589880000000     0.910120000000     0          
C7       C      0.250000000000     0.640230000000     0.859770000000     0          
C8       C      0.250000000000     0.667870000000     0.832130000000     0          
O1       O      0.328300000000     0.277240000000     0.815570000000     0          
C1       C      0.482510000000     0.248300000000     0.891360000000     0          
H1       H      0.467800000000     0.247600000000     0.871700000000     0          
C2       C      0.471990000000     0.249600000000     0.926700000000     0          
C5       C      0.392280000000     0.220600000000     0.903350000000     0          
H2       H      0.397400000000     0.200200000000     0.916000000000     0          
C6       C      0.366060000000     0.219990000000     0.877650000000     0          
H3       H      0.353300000000     0.199500000000     0.873000000000     0          
C3       C      0.437350000000     0.250000000000     0.937350000000     0          
C4       C      0.410120000000     0.250000000000     0.910120000000     0          
C7       C      0.359770000000     0.250000000000     0.859770000000     0          
C8       C      0.332130000000     0.250000000000     0.832130000000     0          
O1       O      0.722760000000     0.328300000000     0.815570000000     0          
C1       C      0.751700000000     0.482510000000     0.891360000000     0          
H1       H      0.752400000000     0.467800000000     0.871700000000     0          
C2       C      0.750400000000     0.471990000000     0.926700000000     0          
C5       C      0.779400000000     0.392280000000     0.903350000000     0          
H2       H      0.799800000000     0.397400000000     0.916000000000     0          
C6       C      0.780010000000     0.366060000000     0.877650000000     0          
H3       H      0.800500000000     0.353300000000     0.873000000000     0          
C3       C      0.750000000000     0.437350000000     0.937350000000     0          
C4       C      0.750000000000     0.410120000000     0.910120000000     0          
C7       C      0.750000000000     0.359770000000     0.859770000000     0          
C8       C      0.750000000000     0.332130000000     0.832130000000     0          
O1       O      0.671700000000     0.277240000000     0.184430000000     0          
C1       C      0.517490000000     0.248300000000     0.108640000000     0          
H1       H      0.532200000000     0.247600000000     0.128300000000     0          
C2       C      0.528010000000     0.249600000000     0.073300000000     0          
C5       C      0.607720000000     0.220600000000     0.096650000000     0          
H2       H      0.602600000000     0.200200000000     0.084000000000     0          
C6       C      0.633940000000     0.219990000000     0.122350000000     0          
H3       H      0.646700000000     0.199500000000     0.127000000000     0          
C3       C      0.562650000000     0.250000000000     0.062650000000     0          
C4       C      0.589880000000     0.250000000000     0.089880000000     0          
C7       C      0.640230000000     0.250000000000     0.140230000000     0          
C8       C      0.667870000000     0.250000000000     0.167870000000     0          
O1       O      0.722760000000     0.671700000000     0.184430000000     0          
C1       C      0.751700000000     0.517490000000     0.108640000000     0          
H1       H      0.752400000000     0.532200000000     0.128300000000     0          
C2       C      0.750400000000     0.528010000000     0.073300000000     0          
C5       C      0.779400000000     0.607720000000     0.096650000000     0          
H2       H      0.799800000000     0.602600000000     0.084000000000     0          
C6       C      0.780010000000     0.633940000000     0.122350000000     0          
H3       H      0.800500000000     0.646700000000     0.127000000000     0          
C3       C      0.750000000000     0.562650000000     0.062650000000     0          
C4       C      0.750000000000     0.589880000000     0.089880000000     0          
C7       C      0.750000000000     0.640230000000     0.140230000000     0          
C8       C      0.750000000000     0.667870000000     0.167870000000     0          
O1       O      0.328300000000     0.722760000000     0.184430000000     0          
C1       C      0.482510000000     0.751700000000     0.108640000000     0          
H1       H      0.467800000000     0.752400000000     0.128300000000     0          
C2       C      0.471990000000     0.750400000000     0.073300000000     0          
C5       C      0.392280000000     0.779400000000     0.096650000000     0          
H2       H      0.397400000000     0.799800000000     0.084000000000     0          
C6       C      0.366060000000     0.780010000000     0.122350000000     0          
H3       H      0.353300000000     0.800500000000     0.127000000000     0          
C3       C      0.437350000000     0.750000000000     0.062650000000     0          
C4       C      0.410120000000     0.750000000000     0.089880000000     0          
C7       C      0.359770000000     0.750000000000     0.140230000000     0          
C8       C      0.332130000000     0.750000000000     0.167870000000     0          
O1       O      0.277240000000     0.328300000000     0.184430000000     0          
C1       C      0.248300000000     0.482510000000     0.108640000000     0          
H1       H      0.247600000000     0.467800000000     0.128300000000     0          
C2       C      0.249600000000     0.471990000000     0.073300000000     0          
C5       C      0.220600000000     0.392280000000     0.096650000000     0          
H2       H      0.200200000000     0.397400000000     0.084000000000     0          
C6       C      0.219990000000     0.366060000000     0.122350000000     0          
H3       H      0.199500000000     0.353300000000     0.127000000000     0          
C3       C      0.250000000000     0.437350000000     0.062650000000     0          
C4       C      0.250000000000     0.410120000000     0.089880000000     0          
C7       C      0.250000000000     0.359770000000     0.140230000000     0          
C8       C      0.250000000000     0.332130000000     0.167870000000     0          
O1       O      0.815570000000     0.671700000000     0.722760000000     0          
C1       C      0.891360000000     0.517490000000     0.751700000000     0          
H1       H      0.871700000000     0.532200000000     0.752400000000     0          
C2       C      0.926700000000     0.528010000000     0.750400000000     0          
C5       C      0.903350000000     0.607720000000     0.779400000000     0          
H2       H      0.916000000000     0.602600000000     0.799800000000     0          
C6       C      0.877650000000     0.633940000000     0.780010000000     0          
H3       H      0.873000000000     0.646700000000     0.800500000000     0          
C3       C      0.937350000000     0.562650000000     0.750000000000     0          
C4       C      0.910120000000     0.589880000000     0.750000000000     0          
C7       C      0.859770000000     0.640230000000     0.750000000000     0          
C8       C      0.832130000000     0.667870000000     0.750000000000     0          
O1       O      0.328300000000     0.815570000000     0.722760000000     0          
C1       C      0.482510000000     0.891360000000     0.751700000000     0          
H1       H      0.467800000000     0.871700000000     0.752400000000     0          
C2       C      0.471990000000     0.926700000000     0.750400000000     0          
C5       C      0.392280000000     0.903350000000     0.779400000000     0          
H2       H      0.397400000000     0.916000000000     0.799800000000     0          
C6       C      0.366060000000     0.877650000000     0.780010000000     0          
H3       H      0.353300000000     0.873000000000     0.800500000000     0          
C3       C      0.437350000000     0.937350000000     0.750000000000     0          
C4       C      0.410120000000     0.910120000000     0.750000000000     0          
C7       C      0.359770000000     0.859770000000     0.750000000000     0          
C8       C      0.332130000000     0.832130000000     0.750000000000     0          
O1       O      0.184430000000     0.328300000000     0.722760000000     0          
C1       C      0.108640000000     0.482510000000     0.751700000000     0          
H1       H      0.128300000000     0.467800000000     0.752400000000     0          
C2       C      0.073300000000     0.471990000000     0.750400000000     0          
C5       C      0.096650000000     0.392280000000     0.779400000000     0          
H2       H      0.084000000000     0.397400000000     0.799800000000     0          
C6       C      0.122350000000     0.366060000000     0.780010000000     0          
H3       H      0.127000000000     0.353300000000     0.800500000000     0          
C3       C      0.062650000000     0.437350000000     0.750000000000     0          
C4       C      0.089880000000     0.410120000000     0.750000000000     0          
C7       C      0.140230000000     0.359770000000     0.750000000000     0          
C8       C      0.167870000000     0.332130000000     0.750000000000     0          
O1       O      0.671700000000     0.184430000000     0.722760000000     0          
C1       C      0.517490000000     0.108640000000     0.751700000000     0          
H1       H      0.532200000000     0.128300000000     0.752400000000     0          
C2       C      0.528010000000     0.073300000000     0.750400000000     0          
C5       C      0.607720000000     0.096650000000     0.779400000000     0          
H2       H      0.602600000000     0.084000000000     0.799800000000     0          
C6       C      0.633940000000     0.122350000000     0.780010000000     0          
H3       H      0.646700000000     0.127000000000     0.800500000000     0          
C3       C      0.562650000000     0.062650000000     0.750000000000     0          
C4       C      0.589880000000     0.089880000000     0.750000000000     0          
C7       C      0.640230000000     0.140230000000     0.750000000000     0          
C8       C      0.667870000000     0.167870000000     0.750000000000     0          
O1       O      0.815570000000     0.328300000000     0.277240000000     0          
C1       C      0.891360000000     0.482510000000     0.248300000000     0          
H1       H      0.871700000000     0.467800000000     0.247600000000     0          
C2       C      0.926700000000     0.471990000000     0.249600000000     0          
C5       C      0.903350000000     0.392280000000     0.220600000000     0          
H2       H      0.916000000000     0.397400000000     0.200200000000     0          
C6       C      0.877650000000     0.366060000000     0.219990000000     0          
H3       H      0.873000000000     0.353300000000     0.199500000000     0          
C3       C      0.937350000000     0.437350000000     0.250000000000     0          
C4       C      0.910120000000     0.410120000000     0.250000000000     0          
C7       C      0.859770000000     0.359770000000     0.250000000000     0          
C8       C      0.832130000000     0.332130000000     0.250000000000     0          
O1       O      0.671700000000     0.815570000000     0.277240000000     0          
C1       C      0.517490000000     0.891360000000     0.248300000000     0          
H1       H      0.532200000000     0.871700000000     0.247600000000     0          
C2       C      0.528010000000     0.926700000000     0.249600000000     0          
C5       C      0.607720000000     0.903350000000     0.220600000000     0          
H2       H      0.602600000000     0.916000000000     0.200200000000     0          
C6       C      0.633940000000     0.877650000000     0.219990000000     0          
H3       H      0.646700000000     0.873000000000     0.199500000000     0          
C3       C      0.562650000000     0.937350000000     0.250000000000     0          
C4       C      0.589880000000     0.910120000000     0.250000000000     0          
C7       C      0.640230000000     0.859770000000     0.250000000000     0          
C8       C      0.667870000000     0.832130000000     0.250000000000     0          
O1       O      0.184430000000     0.671700000000     0.277240000000     0          
C1       C      0.108640000000     0.517490000000     0.248300000000     0          
H1       H      0.128300000000     0.532200000000     0.247600000000     0          
C2       C      0.073300000000     0.528010000000     0.249600000000     0          
C5       C      0.096650000000     0.607720000000     0.220600000000     0          
H2       H      0.084000000000     0.602600000000     0.200200000000     0          
C6       C      0.122350000000     0.633940000000     0.219990000000     0          
H3       H      0.127000000000     0.646700000000     0.199500000000     0          
C3       C      0.062650000000     0.562650000000     0.250000000000     0          
C4       C      0.089880000000     0.589880000000     0.250000000000     0          
C7       C      0.140230000000     0.640230000000     0.250000000000     0          
C8       C      0.167870000000     0.667870000000     0.250000000000     0          
O1       O      0.328300000000     0.184430000000     0.277240000000     0          
C1       C      0.482510000000     0.108640000000     0.248300000000     0          
H1       H      0.467800000000     0.128300000000     0.247600000000     0          
C2       C      0.471990000000     0.073300000000     0.249600000000     0          
C5       C      0.392280000000     0.096650000000     0.220600000000     0          
H2       H      0.397400000000     0.084000000000     0.200200000000     0          
C6       C      0.366060000000     0.122350000000     0.219990000000     0          
H3       H      0.353300000000     0.127000000000     0.199500000000     0          
C3       C      0.437350000000     0.062650000000     0.250000000000     0          
C4       C      0.410120000000     0.089880000000     0.250000000000     0          
C7       C      0.359770000000     0.140230000000     0.250000000000     0          
C8       C      0.332130000000     0.167870000000     0.250000000000     0          
O1       O      0.722760000000     0.815570000000     0.671700000000     0          
C1       C      0.751700000000     0.891360000000     0.517490000000     0          
H1       H      0.752400000000     0.871700000000     0.532200000000     0          
C2       C      0.750400000000     0.926700000000     0.528010000000     0          
C5       C      0.779400000000     0.903350000000     0.607720000000     0          
H2       H      0.799800000000     0.916000000000     0.602600000000     0          
C6       C      0.780010000000     0.877650000000     0.633940000000     0          
H3       H      0.800500000000     0.873000000000     0.646700000000     0          
C3       C      0.750000000000     0.937350000000     0.562650000000     0          
C4       C      0.750000000000     0.910120000000     0.589880000000     0          
C7       C      0.750000000000     0.859770000000     0.640230000000     0          
C8       C      0.750000000000     0.832130000000     0.667870000000     0          
O1       O      0.722760000000     0.184430000000     0.328300000000     0          
C1       C      0.751700000000     0.108640000000     0.482510000000     0          
H1       H      0.752400000000     0.128300000000     0.467800000000     0          
C2       C      0.750400000000     0.073300000000     0.471990000000     0          
C5       C      0.779400000000     0.096650000000     0.392280000000     0          
H2       H      0.799800000000     0.084000000000     0.397400000000     0          
C6       C      0.780010000000     0.122350000000     0.366060000000     0          
H3       H      0.800500000000     0.127000000000     0.353300000000     0          
C3       C      0.750000000000     0.062650000000     0.437350000000     0          
C4       C      0.750000000000     0.089880000000     0.410120000000     0          
C7       C      0.750000000000     0.140230000000     0.359770000000     0          
C8       C      0.750000000000     0.167870000000     0.332130000000     0          
O1       O      0.815570000000     0.722760000000     0.328300000000     0          
C1       C      0.891360000000     0.751700000000     0.482510000000     0          
H1       H      0.871700000000     0.752400000000     0.467800000000     0          
C2       C      0.926700000000     0.750400000000     0.471990000000     0          
C5       C      0.903350000000     0.779400000000     0.392280000000     0          
H2       H      0.916000000000     0.799800000000     0.397400000000     0          
C6       C      0.877650000000     0.780010000000     0.366060000000     0          
H3       H      0.873000000000     0.800500000000     0.353300000000     0          
C3       C      0.937350000000     0.750000000000     0.437350000000     0          
C4       C      0.910120000000     0.750000000000     0.410120000000     0          
C7       C      0.859770000000     0.750000000000     0.359770000000     0          
C8       C      0.832130000000     0.750000000000     0.332130000000     0          
O1       O      0.277240000000     0.815570000000     0.328300000000     0          
C1       C      0.248300000000     0.891360000000     0.482510000000     0          
H1       H      0.247600000000     0.871700000000     0.467800000000     0          
C2       C      0.249600000000     0.926700000000     0.471990000000     0          
C5       C      0.220600000000     0.903350000000     0.392280000000     0          
H2       H      0.200200000000     0.916000000000     0.397400000000     0          
C6       C      0.219990000000     0.877650000000     0.366060000000     0          
H3       H      0.199500000000     0.873000000000     0.353300000000     0          
C3       C      0.250000000000     0.937350000000     0.437350000000     0          
C4       C      0.250000000000     0.910120000000     0.410120000000     0          
C7       C      0.250000000000     0.859770000000     0.359770000000     0          
C8       C      0.250000000000     0.832130000000     0.332130000000     0          
O1       O      0.184430000000     0.277240000000     0.328300000000     0          
C1       C      0.108640000000     0.248300000000     0.482510000000     0          
H1       H      0.128300000000     0.247600000000     0.467800000000     0          
C2       C      0.073300000000     0.249600000000     0.471990000000     0          
C5       C      0.096650000000     0.220600000000     0.392280000000     0          
H2       H      0.084000000000     0.200200000000     0.397400000000     0          
C6       C      0.122350000000     0.219990000000     0.366060000000     0          
H3       H      0.127000000000     0.199500000000     0.353300000000     0          
C3       C      0.062650000000     0.250000000000     0.437350000000     0          
C4       C      0.089880000000     0.250000000000     0.410120000000     0          
C7       C      0.140230000000     0.250000000000     0.359770000000     0          
C8       C      0.167870000000     0.250000000000     0.332130000000     0          
O1       O      0.277240000000     0.184430000000     0.671700000000     0          
C1       C      0.248300000000     0.108640000000     0.517490000000     0          
H1       H      0.247600000000     0.128300000000     0.532200000000     0          
C2       C      0.249600000000     0.073300000000     0.528010000000     0          
C5       C      0.220600000000     0.096650000000     0.607720000000     0          
H2       H      0.200200000000     0.084000000000     0.602600000000     0          
C6       C      0.219990000000     0.122350000000     0.633940000000     0          
H3       H      0.199500000000     0.127000000000     0.646700000000     0          
C3       C      0.250000000000     0.062650000000     0.562650000000     0          
C4       C      0.250000000000     0.089880000000     0.589880000000     0          
C7       C      0.250000000000     0.140230000000     0.640230000000     0          
C8       C      0.250000000000     0.167870000000     0.667870000000     0          
O1       O      0.815570000000     0.277240000000     0.671700000000     0          
C1       C      0.891360000000     0.248300000000     0.517490000000     0          
H1       H      0.871700000000     0.247600000000     0.532200000000     0          
C2       C      0.926700000000     0.249600000000     0.528010000000     0          
C5       C      0.903350000000     0.220600000000     0.607720000000     0          
H2       H      0.916000000000     0.200200000000     0.602600000000     0          
C6       C      0.877650000000     0.219990000000     0.633940000000     0          
H3       H      0.873000000000     0.199500000000     0.646700000000     0          
C3       C      0.937350000000     0.250000000000     0.562650000000     0          
C4       C      0.910120000000     0.250000000000     0.589880000000     0          
C7       C      0.859770000000     0.250000000000     0.640230000000     0          
C8       C      0.832130000000     0.250000000000     0.667870000000     0          
O1       O      0.184430000000     0.722760000000     0.671700000000     0          
C1       C      0.108640000000     0.751700000000     0.517490000000     0          
H1       H      0.128300000000     0.752400000000     0.532200000000     0          
C2       C      0.073300000000     0.750400000000     0.528010000000     0          
C5       C      0.096650000000     0.779400000000     0.607720000000     0          
H2       H      0.084000000000     0.799800000000     0.602600000000     0          
C6       C      0.122350000000     0.780010000000     0.633940000000     0          
H3       H      0.127000000000     0.800500000000     0.646700000000     0          
C3       C      0.062650000000     0.750000000000     0.562650000000     0          
C4       C      0.089880000000     0.750000000000     0.589880000000     0          
C7       C      0.140230000000     0.750000000000     0.640230000000     0          
C8       C      0.167870000000     0.750000000000     0.667870000000     0          
O1       O      0.828300000000     0.777240000000     0.684430000000     0          
C1       C      0.982510000000     0.748300000000     0.608640000000     0          
H1       H      0.967800000000     0.747600000000     0.628300000000     0          
C2       C      0.971990000000     0.749600000000     0.573300000000     0          
C5       C      0.892280000000     0.720600000000     0.596650000000     0          
H2       H      0.897400000000     0.700200000000     0.584000000000     0          
C6       C      0.866060000000     0.719990000000     0.622350000000     0          
H3       H      0.853300000000     0.699500000000     0.627000000000     0          
Zr1      Zr     0.785050000000     0.785050000000     0.722630000000     0          
O3       O      0.756980000000     0.756980000000     0.696460000000     0          
Zr2?     Zr     0.795940000000     0.795940000000     0.726880000000     0          
O4       O      0.780910000000     0.780910000000     0.780910000000     0          
N1       N      0.000000000000     0.750200000000     0.551680000000     0          
O1       O      0.222760000000     0.828300000000     0.684430000000     0          
C1       C      0.251700000000     0.982510000000     0.608640000000     0          
H1       H      0.252400000000     0.967800000000     0.628300000000     0          
C2       C      0.250400000000     0.971990000000     0.573300000000     0          
C5       C      0.279400000000     0.892280000000     0.596650000000     0          
H2       H      0.299800000000     0.897400000000     0.584000000000     0          
C6       C      0.280010000000     0.866060000000     0.622350000000     0          
H3       H      0.300500000000     0.853300000000     0.627000000000     0          
Zr1      Zr     0.214950000000     0.785050000000     0.722630000000     0          
O3       O      0.243020000000     0.756980000000     0.696460000000     0          
Zr2?     Zr     0.204060000000     0.795940000000     0.726880000000     0          
O4       O      0.219090000000     0.780910000000     0.780910000000     0          
N1       N      0.249800000000     0.000000000000     0.551680000000     0          
O1       O      0.171700000000     0.222760000000     0.684430000000     0          
C1       C      0.017490000000     0.251700000000     0.608640000000     0          
H1       H      0.032200000000     0.252400000000     0.628300000000     0          
C2       C      0.028010000000     0.250400000000     0.573300000000     0          
C5       C      0.107720000000     0.279400000000     0.596650000000     0          
H2       H      0.102600000000     0.299800000000     0.584000000000     0          
C6       C      0.133940000000     0.280010000000     0.622350000000     0          
H3       H      0.146700000000     0.300500000000     0.627000000000     0          
Zr1      Zr     0.214950000000     0.214950000000     0.722630000000     0          
O3       O      0.243020000000     0.243020000000     0.696460000000     0          
Zr2?     Zr     0.204060000000     0.204060000000     0.726880000000     0          
O4       O      0.219090000000     0.219090000000     0.780910000000     0          
N1       N      0.000000000000     0.249800000000     0.551680000000     0          
O1       O      0.777240000000     0.171700000000     0.684430000000     0          
C1       C      0.748300000000     0.017490000000     0.608640000000     0          
H1       H      0.747600000000     0.032200000000     0.628300000000     0          
C2       C      0.749600000000     0.028010000000     0.573300000000     0          
C5       C      0.720600000000     0.107720000000     0.596650000000     0          
H2       H      0.700200000000     0.102600000000     0.584000000000     0          
C6       C      0.719990000000     0.133940000000     0.622350000000     0          
H3       H      0.699500000000     0.146700000000     0.627000000000     0          
Zr1      Zr     0.785050000000     0.214950000000     0.722630000000     0          
O3       O      0.756980000000     0.243020000000     0.696460000000     0          
Zr2?     Zr     0.795940000000     0.204060000000     0.726880000000     0          
O4       O      0.780910000000     0.219090000000     0.780910000000     0          
N1       N      0.750200000000     0.000000000000     0.551680000000     0          
O1       O      0.828300000000     0.222760000000     0.315570000000     0          
C1       C      0.982510000000     0.251700000000     0.391360000000     0          
H1       H      0.967800000000     0.252400000000     0.371700000000     0          
C2       C      0.971990000000     0.250400000000     0.426700000000     0          
C5       C      0.892280000000     0.279400000000     0.403350000000     0          
H2       H      0.897400000000     0.299800000000     0.416000000000     0          
C6       C      0.866060000000     0.280010000000     0.377650000000     0          
H3       H      0.853300000000     0.300500000000     0.373000000000     0          
Zr1      Zr     0.785050000000     0.214950000000     0.277370000000     0          
O3       O      0.756980000000     0.243020000000     0.303540000000     0          
Zr2?     Zr     0.795940000000     0.204060000000     0.273120000000     0          
O4       O      0.780910000000     0.219090000000     0.219090000000     0          
N1       N      0.000000000000     0.249800000000     0.448320000000     0          
O1       O      0.777240000000     0.828300000000     0.315570000000     0          
C1       C      0.748300000000     0.982510000000     0.391360000000     0          
H1       H      0.747600000000     0.967800000000     0.371700000000     0          
C2       C      0.749600000000     0.971990000000     0.426700000000     0          
C5       C      0.720600000000     0.892280000000     0.403350000000     0          
H2       H      0.700200000000     0.897400000000     0.416000000000     0          
C6       C      0.719990000000     0.866060000000     0.377650000000     0          
H3       H      0.699500000000     0.853300000000     0.373000000000     0          
Zr1      Zr     0.785050000000     0.785050000000     0.277370000000     0          
O3       O      0.756980000000     0.756980000000     0.303540000000     0          
Zr2?     Zr     0.795940000000     0.795940000000     0.273120000000     0          
O4       O      0.780910000000     0.780910000000     0.219090000000     0          
N1       N      0.750200000000     0.000000000000     0.448320000000     0          
O1       O      0.171700000000     0.777240000000     0.315570000000     0          
C1       C      0.017490000000     0.748300000000     0.391360000000     0          
H1       H      0.032200000000     0.747600000000     0.371700000000     0          
C2       C      0.028010000000     0.749600000000     0.426700000000     0          
C5       C      0.107720000000     0.720600000000     0.403350000000     0          
H2       H      0.102600000000     0.700200000000     0.416000000000     0          
C6       C      0.133940000000     0.719990000000     0.377650000000     0          
H3       H      0.146700000000     0.699500000000     0.373000000000     0          
Zr1      Zr     0.214950000000     0.785050000000     0.277370000000     0          
O3       O      0.243020000000     0.756980000000     0.303540000000     0          
Zr2?     Zr     0.204060000000     0.795940000000     0.273120000000     0          
O4       O      0.219090000000     0.780910000000     0.219090000000     0          
N1       N      0.000000000000     0.750200000000     0.448320000000     0          
O1       O      0.222760000000     0.171700000000     0.315570000000     0          
C1       C      0.251700000000     0.017490000000     0.391360000000     0          
H1       H      0.252400000000     0.032200000000     0.371700000000     0          
C2       C      0.250400000000     0.028010000000     0.426700000000     0          
C5       C      0.279400000000     0.107720000000     0.403350000000     0          
H2       H      0.299800000000     0.102600000000     0.416000000000     0          
C6       C      0.280010000000     0.133940000000     0.377650000000     0          
H3       H      0.300500000000     0.146700000000     0.373000000000     0          
Zr1      Zr     0.214950000000     0.214950000000     0.277370000000     0          
O3       O      0.243020000000     0.243020000000     0.303540000000     0          
Zr2?     Zr     0.204060000000     0.204060000000     0.273120000000     0          
O4       O      0.219090000000     0.219090000000     0.219090000000     0          
N1       N      0.249800000000     0.000000000000     0.448320000000     0          
O1       O      0.684430000000     0.828300000000     0.777240000000     0          
C1       C      0.608640000000     0.982510000000     0.748300000000     0          
H1       H      0.628300000000     0.967800000000     0.747600000000     0          
C2       C      0.573300000000     0.971990000000     0.749600000000     0          
C5       C      0.596650000000     0.892280000000     0.720600000000     0          
H2       H      0.584000000000     0.897400000000     0.700200000000     0          
C6       C      0.622350000000     0.866060000000     0.719990000000     0          
H3       H      0.627000000000     0.853300000000     0.699500000000     0          
Zr1      Zr     0.722630000000     0.785050000000     0.785050000000     0          
O3       O      0.696460000000     0.756980000000     0.756980000000     0          
Zr2?     Zr     0.726880000000     0.795940000000     0.795940000000     0          
N1       N      0.551680000000     0.000000000000     0.750200000000     0          
O1       O      0.171700000000     0.684430000000     0.777240000000     0          
C1       C      0.017490000000     0.608640000000     0.748300000000     0          
H1       H      0.032200000000     0.628300000000     0.747600000000     0          
C2       C      0.028010000000     0.573300000000     0.749600000000     0          
C5       C      0.107720000000     0.596650000000     0.720600000000     0          
H2       H      0.102600000000     0.584000000000     0.700200000000     0          
C6       C      0.133940000000     0.622350000000     0.719990000000     0          
H3       H      0.146700000000     0.627000000000     0.699500000000     0          
Zr1      Zr     0.214950000000     0.722630000000     0.785050000000     0          
O3       O      0.243020000000     0.696460000000     0.756980000000     0          
Zr2?     Zr     0.204060000000     0.726880000000     0.795940000000     0          
N1       N      0.000000000000     0.551680000000     0.750200000000     0          
O1       O      0.315570000000     0.171700000000     0.777240000000     0          
C1       C      0.391360000000     0.017490000000     0.748300000000     0          
H1       H      0.371700000000     0.032200000000     0.747600000000     0          
C2       C      0.426700000000     0.028010000000     0.749600000000     0          
C5       C      0.403350000000     0.107720000000     0.720600000000     0          
H2       H      0.416000000000     0.102600000000     0.700200000000     0          
C6       C      0.377650000000     0.133940000000     0.719990000000     0          
H3       H      0.373000000000     0.146700000000     0.699500000000     0          
Zr1      Zr     0.277370000000     0.214950000000     0.785050000000     0          
O3       O      0.303540000000     0.243020000000     0.756980000000     0          
Zr2?     Zr     0.273120000000     0.204060000000     0.795940000000     0          
N1       N      0.448320000000     0.000000000000     0.750200000000     0          
O1       O      0.828300000000     0.315570000000     0.777240000000     0          
C1       C      0.982510000000     0.391360000000     0.748300000000     0          
H1       H      0.967800000000     0.371700000000     0.747600000000     0          
C2       C      0.971990000000     0.426700000000     0.749600000000     0          
C5       C      0.892280000000     0.403350000000     0.720600000000     0          
H2       H      0.897400000000     0.416000000000     0.700200000000     0          
C6       C      0.866060000000     0.377650000000     0.719990000000     0          
H3       H      0.853300000000     0.373000000000     0.699500000000     0          
Zr1      Zr     0.785050000000     0.277370000000     0.785050000000     0          
O3       O      0.756980000000     0.303540000000     0.756980000000     0          
Zr2?     Zr     0.795940000000     0.273120000000     0.795940000000     0          
N1       N      0.000000000000     0.448320000000     0.750200000000     0          
O1       O      0.684430000000     0.171700000000     0.222760000000     0          
C1       C      0.608640000000     0.017490000000     0.251700000000     0          
H1       H      0.628300000000     0.032200000000     0.252400000000     0          
C2       C      0.573300000000     0.028010000000     0.250400000000     0          
C5       C      0.596650000000     0.107720000000     0.279400000000     0          
H2       H      0.584000000000     0.102600000000     0.299800000000     0          
C6       C      0.622350000000     0.133940000000     0.280010000000     0          
H3       H      0.627000000000     0.146700000000     0.300500000000     0          
Zr1      Zr     0.722630000000     0.214950000000     0.214950000000     0          
O3       O      0.696460000000     0.243020000000     0.243020000000     0          
Zr2?     Zr     0.726880000000     0.204060000000     0.204060000000     0          
N1       N      0.551680000000     0.000000000000     0.249800000000     0          
O1       O      0.828300000000     0.684430000000     0.222760000000     0          
C1       C      0.982510000000     0.608640000000     0.251700000000     0          
H1       H      0.967800000000     0.628300000000     0.252400000000     0          
C2       C      0.971990000000     0.573300000000     0.250400000000     0          
C5       C      0.892280000000     0.596650000000     0.279400000000     0          
H2       H      0.897400000000     0.584000000000     0.299800000000     0          
C6       C      0.866060000000     0.622350000000     0.280010000000     0          
H3       H      0.853300000000     0.627000000000     0.300500000000     0          
Zr1      Zr     0.785050000000     0.722630000000     0.214950000000     0          
O3       O      0.756980000000     0.696460000000     0.243020000000     0          
Zr2?     Zr     0.795940000000     0.726880000000     0.204060000000     0          
N1       N      0.000000000000     0.551680000000     0.249800000000     0          
O1       O      0.315570000000     0.828300000000     0.222760000000     0          
C1       C      0.391360000000     0.982510000000     0.251700000000     0          
H1       H      0.371700000000     0.967800000000     0.252400000000     0          
C2       C      0.426700000000     0.971990000000     0.250400000000     0          
C5       C      0.403350000000     0.892280000000     0.279400000000     0          
H2       H      0.416000000000     0.897400000000     0.299800000000     0          
C6       C      0.377650000000     0.866060000000     0.280010000000     0          
H3       H      0.373000000000     0.853300000000     0.300500000000     0          
Zr1      Zr     0.277370000000     0.785050000000     0.214950000000     0          
O3       O      0.303540000000     0.756980000000     0.243020000000     0          
Zr2?     Zr     0.273120000000     0.795940000000     0.204060000000     0          
N1       N      0.448320000000     0.000000000000     0.249800000000     0          
O1       O      0.171700000000     0.315570000000     0.222760000000     0          
C1       C      0.017490000000     0.391360000000     0.251700000000     0          
H1       H      0.032200000000     0.371700000000     0.252400000000     0          
C2       C      0.028010000000     0.426700000000     0.250400000000     0          
C5       C      0.107720000000     0.403350000000     0.279400000000     0          
H2       H      0.102600000000     0.416000000000     0.299800000000     0          
C6       C      0.133940000000     0.377650000000     0.280010000000     0          
H3       H      0.146700000000     0.373000000000     0.300500000000     0          
Zr1      Zr     0.214950000000     0.277370000000     0.214950000000     0          
O3       O      0.243020000000     0.303540000000     0.243020000000     0          
Zr2?     Zr     0.204060000000     0.273120000000     0.204060000000     0          
N1       N      0.000000000000     0.448320000000     0.249800000000     0          
O1       O      0.777240000000     0.684430000000     0.828300000000     0          
C1       C      0.748300000000     0.608640000000     0.982510000000     0          
H1       H      0.747600000000     0.628300000000     0.967800000000     0          
C2       C      0.749600000000     0.573300000000     0.971990000000     0          
C5       C      0.720600000000     0.596650000000     0.892280000000     0          
H2       H      0.700200000000     0.584000000000     0.897400000000     0          
C6       C      0.719990000000     0.622350000000     0.866060000000     0          
H3       H      0.699500000000     0.627000000000     0.853300000000     0          
Zr1      Zr     0.785050000000     0.722630000000     0.785050000000     0          
O3       O      0.756980000000     0.696460000000     0.756980000000     0          
Zr2?     Zr     0.795940000000     0.726880000000     0.795940000000     0          
N1       N      0.750200000000     0.551680000000     0.000000000000     0          
O1       O      0.777240000000     0.315570000000     0.171700000000     0          
C1       C      0.748300000000     0.391360000000     0.017490000000     0          
H1       H      0.747600000000     0.371700000000     0.032200000000     0          
C2       C      0.749600000000     0.426700000000     0.028010000000     0          
C5       C      0.720600000000     0.403350000000     0.107720000000     0          
H2       H      0.700200000000     0.416000000000     0.102600000000     0          
C6       C      0.719990000000     0.377650000000     0.133940000000     0          
H3       H      0.699500000000     0.373000000000     0.146700000000     0          
Zr1      Zr     0.785050000000     0.277370000000     0.214950000000     0          
O3       O      0.756980000000     0.303540000000     0.243020000000     0          
Zr2?     Zr     0.795940000000     0.273120000000     0.204060000000     0          
N1       N      0.750200000000     0.448320000000     0.000000000000     0          
O1       O      0.684430000000     0.777240000000     0.171700000000     0          
C1       C      0.608640000000     0.748300000000     0.017490000000     0          
H1       H      0.628300000000     0.747600000000     0.032200000000     0          
C2       C      0.573300000000     0.749600000000     0.028010000000     0          
C5       C      0.596650000000     0.720600000000     0.107720000000     0          
H2       H      0.584000000000     0.700200000000     0.102600000000     0          
C6       C      0.622350000000     0.719990000000     0.133940000000     0          
H3       H      0.627000000000     0.699500000000     0.146700000000     0          
Zr1      Zr     0.722630000000     0.785050000000     0.214950000000     0          
O3       O      0.696460000000     0.756980000000     0.243020000000     0          
Zr2?     Zr     0.726880000000     0.795940000000     0.204060000000     0          
N1       N      0.551680000000     0.750200000000     0.000000000000     0          
O1       O      0.222760000000     0.684430000000     0.171700000000     0          
C1       C      0.251700000000     0.608640000000     0.017490000000     0          
H1       H      0.252400000000     0.628300000000     0.032200000000     0          
C2       C      0.250400000000     0.573300000000     0.028010000000     0          
C5       C      0.279400000000     0.596650000000     0.107720000000     0          
H2       H      0.299800000000     0.584000000000     0.102600000000     0          
C6       C      0.280010000000     0.622350000000     0.133940000000     0          
H3       H      0.300500000000     0.627000000000     0.146700000000     0          
Zr1      Zr     0.214950000000     0.722630000000     0.214950000000     0          
O3       O      0.243020000000     0.696460000000     0.243020000000     0          
Zr2?     Zr     0.204060000000     0.726880000000     0.204060000000     0          
N1       N      0.249800000000     0.551680000000     0.000000000000     0          
O1       O      0.315570000000     0.222760000000     0.171700000000     0          
C1       C      0.391360000000     0.251700000000     0.017490000000     0          
H1       H      0.371700000000     0.252400000000     0.032200000000     0          
C2       C      0.426700000000     0.250400000000     0.028010000000     0          
C5       C      0.403350000000     0.279400000000     0.107720000000     0          
H2       H      0.416000000000     0.299800000000     0.102600000000     0          
C6       C      0.377650000000     0.280010000000     0.133940000000     0          
H3       H      0.373000000000     0.300500000000     0.146700000000     0          
Zr1      Zr     0.277370000000     0.214950000000     0.214950000000     0          
O3       O      0.303540000000     0.243020000000     0.243020000000     0          
Zr2?     Zr     0.273120000000     0.204060000000     0.204060000000     0          
N1       N      0.448320000000     0.249800000000     0.000000000000     0          
O1       O      0.222760000000     0.315570000000     0.828300000000     0          
C1       C      0.251700000000     0.391360000000     0.982510000000     0          
H1       H      0.252400000000     0.371700000000     0.967800000000     0          
C2       C      0.250400000000     0.426700000000     0.971990000000     0          
C5       C      0.279400000000     0.403350000000     0.892280000000     0          
H2       H      0.299800000000     0.416000000000     0.897400000000     0          
C6       C      0.280010000000     0.377650000000     0.866060000000     0          
H3       H      0.300500000000     0.373000000000     0.853300000000     0          
Zr1      Zr     0.214950000000     0.277370000000     0.785050000000     0          
O3       O      0.243020000000     0.303540000000     0.756980000000     0          
Zr2?     Zr     0.204060000000     0.273120000000     0.795940000000     0          
N1       N      0.249800000000     0.448320000000     0.000000000000     0          
O1       O      0.684430000000     0.222760000000     0.828300000000     0          
C1       C      0.608640000000     0.251700000000     0.982510000000     0          
H1       H      0.628300000000     0.252400000000     0.967800000000     0          
C2       C      0.573300000000     0.250400000000     0.971990000000     0          
C5       C      0.596650000000     0.279400000000     0.892280000000     0          
H2       H      0.584000000000     0.299800000000     0.897400000000     0          
C6       C      0.622350000000     0.280010000000     0.866060000000     0          
H3       H      0.627000000000     0.300500000000     0.853300000000     0          
Zr1      Zr     0.722630000000     0.214950000000     0.785050000000     0          
O3       O      0.696460000000     0.243020000000     0.756980000000     0          
Zr2?     Zr     0.726880000000     0.204060000000     0.795940000000     0          
N1       N      0.551680000000     0.249800000000     0.000000000000     0          
O1       O      0.315570000000     0.777240000000     0.828300000000     0          
C1       C      0.391360000000     0.748300000000     0.982510000000     0          
H1       H      0.371700000000     0.747600000000     0.967800000000     0          
C2       C      0.426700000000     0.749600000000     0.971990000000     0          
C5       C      0.403350000000     0.720600000000     0.892280000000     0          
H2       H      0.416000000000     0.700200000000     0.897400000000     0          
C6       C      0.377650000000     0.719990000000     0.866060000000     0          
H3       H      0.373000000000     0.699500000000     0.853300000000     0          
Zr1      Zr     0.277370000000     0.785050000000     0.785050000000     0          
O3       O      0.303540000000     0.756980000000     0.756980000000     0          
Zr2?     Zr     0.273120000000     0.795940000000     0.795940000000     0          
N1       N      0.448320000000     0.750200000000     0.000000000000     0          
O1       O      0.171700000000     0.222760000000     0.315570000000     0          
C1       C      0.017490000000     0.251700000000     0.391360000000     0          
H1       H      0.032200000000     0.252400000000     0.371700000000     0          
C2       C      0.028010000000     0.250400000000     0.426700000000     0          
C5       C      0.107720000000     0.279400000000     0.403350000000     0          
H2       H      0.102600000000     0.299800000000     0.416000000000     0          
C6       C      0.133940000000     0.280010000000     0.377650000000     0          
H3       H      0.146700000000     0.300500000000     0.373000000000     0          
O1       O      0.777240000000     0.171700000000     0.315570000000     0          
C1       C      0.748300000000     0.017490000000     0.391360000000     0          
H1       H      0.747600000000     0.032200000000     0.371700000000     0          
C2       C      0.749600000000     0.028010000000     0.426700000000     0          
C5       C      0.720600000000     0.107720000000     0.403350000000     0          
H2       H      0.700200000000     0.102600000000     0.416000000000     0          
C6       C      0.719990000000     0.133940000000     0.377650000000     0          
H3       H      0.699500000000     0.146700000000     0.373000000000     0          
O1       O      0.828300000000     0.777240000000     0.315570000000     0          
C1       C      0.982510000000     0.748300000000     0.391360000000     0          
H1       H      0.967800000000     0.747600000000     0.371700000000     0          
C2       C      0.971990000000     0.749600000000     0.426700000000     0          
C5       C      0.892280000000     0.720600000000     0.403350000000     0          
H2       H      0.897400000000     0.700200000000     0.416000000000     0          
C6       C      0.866060000000     0.719990000000     0.377650000000     0          
H3       H      0.853300000000     0.699500000000     0.373000000000     0          
O1       O      0.222760000000     0.828300000000     0.315570000000     0          
C1       C      0.251700000000     0.982510000000     0.391360000000     0          
H1       H      0.252400000000     0.967800000000     0.371700000000     0          
C2       C      0.250400000000     0.971990000000     0.426700000000     0          
C5       C      0.279400000000     0.892280000000     0.403350000000     0          
H2       H      0.299800000000     0.897400000000     0.416000000000     0          
C6       C      0.280010000000     0.866060000000     0.377650000000     0          
H3       H      0.300500000000     0.853300000000     0.373000000000     0          
O1       O      0.171700000000     0.777240000000     0.684430000000     0          
C1       C      0.017490000000     0.748300000000     0.608640000000     0          
H1       H      0.032200000000     0.747600000000     0.628300000000     0          
C2       C      0.028010000000     0.749600000000     0.573300000000     0          
C5       C      0.107720000000     0.720600000000     0.596650000000     0          
H2       H      0.102600000000     0.700200000000     0.584000000000     0          
C6       C      0.133940000000     0.719990000000     0.622350000000     0          
H3       H      0.146700000000     0.699500000000     0.627000000000     0          
O1       O      0.222760000000     0.171700000000     0.684430000000     0          
C1       C      0.251700000000     0.017490000000     0.608640000000     0          
H1       H      0.252400000000     0.032200000000     0.628300000000     0          
C2       C      0.250400000000     0.028010000000     0.573300000000     0          
C5       C      0.279400000000     0.107720000000     0.596650000000     0          
H2       H      0.299800000000     0.102600000000     0.584000000000     0          
C6       C      0.280010000000     0.133940000000     0.622350000000     0          
H3       H      0.300500000000     0.146700000000     0.627000000000     0          
O1       O      0.828300000000     0.222760000000     0.684430000000     0          
C1       C      0.982510000000     0.251700000000     0.608640000000     0          
H1       H      0.967800000000     0.252400000000     0.628300000000     0          
C2       C      0.971990000000     0.250400000000     0.573300000000     0          
C5       C      0.892280000000     0.279400000000     0.596650000000     0          
H2       H      0.897400000000     0.299800000000     0.584000000000     0          
C6       C      0.866060000000     0.280010000000     0.622350000000     0          
H3       H      0.853300000000     0.300500000000     0.627000000000     0          
O1       O      0.777240000000     0.828300000000     0.684430000000     0          
C1       C      0.748300000000     0.982510000000     0.608640000000     0          
H1       H      0.747600000000     0.967800000000     0.628300000000     0          
C2       C      0.749600000000     0.971990000000     0.573300000000     0          
C5       C      0.720600000000     0.892280000000     0.596650000000     0          
H2       H      0.700200000000     0.897400000000     0.584000000000     0          
C6       C      0.719990000000     0.866060000000     0.622350000000     0          
H3       H      0.699500000000     0.853300000000     0.627000000000     0          
O1       O      0.315570000000     0.171700000000     0.222760000000     0          
C1       C      0.391360000000     0.017490000000     0.251700000000     0          
H1       H      0.371700000000     0.032200000000     0.252400000000     0          
C2       C      0.426700000000     0.028010000000     0.250400000000     0          
C5       C      0.403350000000     0.107720000000     0.279400000000     0          
H2       H      0.416000000000     0.102600000000     0.299800000000     0          
C6       C      0.377650000000     0.133940000000     0.280010000000     0          
H3       H      0.373000000000     0.146700000000     0.300500000000     0          
O1       O      0.828300000000     0.315570000000     0.222760000000     0          
C1       C      0.982510000000     0.391360000000     0.251700000000     0          
H1       H      0.967800000000     0.371700000000     0.252400000000     0          
C2       C      0.971990000000     0.426700000000     0.250400000000     0          
C5       C      0.892280000000     0.403350000000     0.279400000000     0          
H2       H      0.897400000000     0.416000000000     0.299800000000     0          
C6       C      0.866060000000     0.377650000000     0.280010000000     0          
H3       H      0.853300000000     0.373000000000     0.300500000000     0          
O1       O      0.684430000000     0.828300000000     0.222760000000     0          
C1       C      0.608640000000     0.982510000000     0.251700000000     0          
H1       H      0.628300000000     0.967800000000     0.252400000000     0          
C2       C      0.573300000000     0.971990000000     0.250400000000     0          
C5       C      0.596650000000     0.892280000000     0.279400000000     0          
H2       H      0.584000000000     0.897400000000     0.299800000000     0          
C6       C      0.622350000000     0.866060000000     0.280010000000     0          
H3       H      0.627000000000     0.853300000000     0.300500000000     0          
O1       O      0.171700000000     0.684430000000     0.222760000000     0          
C1       C      0.017490000000     0.608640000000     0.251700000000     0          
H1       H      0.032200000000     0.628300000000     0.252400000000     0          
C2       C      0.028010000000     0.573300000000     0.250400000000     0          
C5       C      0.107720000000     0.596650000000     0.279400000000     0          
H2       H      0.102600000000     0.584000000000     0.299800000000     0          
C6       C      0.133940000000     0.622350000000     0.280010000000     0          
H3       H      0.146700000000     0.627000000000     0.300500000000     0          
O1       O      0.315570000000     0.828300000000     0.777240000000     0          
C1       C      0.391360000000     0.982510000000     0.748300000000     0          
H1       H      0.371700000000     0.967800000000     0.747600000000     0          
C2       C      0.426700000000     0.971990000000     0.749600000000     0          
C5       C      0.403350000000     0.892280000000     0.720600000000     0          
H2       H      0.416000000000     0.897400000000     0.700200000000     0          
C6       C      0.377650000000     0.866060000000     0.719990000000     0          
H3       H      0.373000000000     0.853300000000     0.699500000000     0          
O1       O      0.171700000000     0.315570000000     0.777240000000     0          
C1       C      0.017490000000     0.391360000000     0.748300000000     0          
H1       H      0.032200000000     0.371700000000     0.747600000000     0          
C2       C      0.028010000000     0.426700000000     0.749600000000     0          
C5       C      0.107720000000     0.403350000000     0.720600000000     0          
H2       H      0.102600000000     0.416000000000     0.700200000000     0          
C6       C      0.133940000000     0.377650000000     0.719990000000     0          
H3       H      0.146700000000     0.373000000000     0.699500000000     0          
O1       O      0.684430000000     0.171700000000     0.777240000000     0          
C1       C      0.608640000000     0.017490000000     0.748300000000     0          
H1       H      0.628300000000     0.032200000000     0.747600000000     0          
C2       C      0.573300000000     0.028010000000     0.749600000000     0          
C5       C      0.596650000000     0.107720000000     0.720600000000     0          
H2       H      0.584000000000     0.102600000000     0.700200000000     0          
C6       C      0.622350000000     0.133940000000     0.719990000000     0          
H3       H      0.627000000000     0.146700000000     0.699500000000     0          
O1       O      0.828300000000     0.684430000000     0.777240000000     0          
C1       C      0.982510000000     0.608640000000     0.748300000000     0          
H1       H      0.967800000000     0.628300000000     0.747600000000     0          
C2       C      0.971990000000     0.573300000000     0.749600000000     0          
C5       C      0.892280000000     0.596650000000     0.720600000000     0          
H2       H      0.897400000000     0.584000000000     0.700200000000     0          
C6       C      0.866060000000     0.622350000000     0.719990000000     0          
H3       H      0.853300000000     0.627000000000     0.699500000000     0          
O1       O      0.222760000000     0.315570000000     0.171700000000     0          
C1       C      0.251700000000     0.391360000000     0.017490000000     0          
H1       H      0.252400000000     0.371700000000     0.032200000000     0          
C2       C      0.250400000000     0.426700000000     0.028010000000     0          
C5       C      0.279400000000     0.403350000000     0.107720000000     0          
H2       H      0.299800000000     0.416000000000     0.102600000000     0          
C6       C      0.280010000000     0.377650000000     0.133940000000     0          
H3       H      0.300500000000     0.373000000000     0.146700000000     0          
O1       O      0.222760000000     0.684430000000     0.828300000000     0          
C1       C      0.251700000000     0.608640000000     0.982510000000     0          
H1       H      0.252400000000     0.628300000000     0.967800000000     0          
C2       C      0.250400000000     0.573300000000     0.971990000000     0          
C5       C      0.279400000000     0.596650000000     0.892280000000     0          
H2       H      0.299800000000     0.584000000000     0.897400000000     0          
C6       C      0.280010000000     0.622350000000     0.866060000000     0          
H3       H      0.300500000000     0.627000000000     0.853300000000     0          
O1       O      0.315570000000     0.222760000000     0.828300000000     0          
C1       C      0.391360000000     0.251700000000     0.982510000000     0          
H1       H      0.371700000000     0.252400000000     0.967800000000     0          
C2       C      0.426700000000     0.250400000000     0.971990000000     0          
C5       C      0.403350000000     0.279400000000     0.892280000000     0          
H2       H      0.416000000000     0.299800000000     0.897400000000     0          
C6       C      0.377650000000     0.280010000000     0.866060000000     0          
H3       H      0.373000000000     0.300500000000     0.853300000000     0          
O1       O      0.777240000000     0.315570000000     0.828300000000     0          
C1       C      0.748300000000     0.391360000000     0.982510000000     0          
H1       H      0.747600000000     0.371700000000     0.967800000000     0          
C2       C      0.749600000000     0.426700000000     0.971990000000     0          
C5       C      0.720600000000     0.403350000000     0.892280000000     0          
H2       H      0.700200000000     0.416000000000     0.897400000000     0          
C6       C      0.719990000000     0.377650000000     0.866060000000     0          
H3       H      0.699500000000     0.373000000000     0.853300000000     0          
O1       O      0.684430000000     0.777240000000     0.828300000000     0          
C1       C      0.608640000000     0.748300000000     0.982510000000     0          
H1       H      0.628300000000     0.747600000000     0.967800000000     0          
C2       C      0.573300000000     0.749600000000     0.971990000000     0          
C5       C      0.596650000000     0.720600000000     0.892280000000     0          
H2       H      0.584000000000     0.700200000000     0.897400000000     0          
C6       C      0.622350000000     0.719990000000     0.866060000000     0          
H3       H      0.627000000000     0.699500000000     0.853300000000     0          
O1       O      0.777240000000     0.684430000000     0.171700000000     0          
C1       C      0.748300000000     0.608640000000     0.017490000000     0          
H1       H      0.747600000000     0.628300000000     0.032200000000     0          
C2       C      0.749600000000     0.573300000000     0.028010000000     0          
C5       C      0.720600000000     0.596650000000     0.107720000000     0          
H2       H      0.700200000000     0.584000000000     0.102600000000     0          
C6       C      0.719990000000     0.622350000000     0.133940000000     0          
H3       H      0.699500000000     0.627000000000     0.146700000000     0          
O1       O      0.315570000000     0.777240000000     0.171700000000     0          
C1       C      0.391360000000     0.748300000000     0.017490000000     0          
H1       H      0.371700000000     0.747600000000     0.032200000000     0          
C2       C      0.426700000000     0.749600000000     0.028010000000     0          
C5       C      0.403350000000     0.720600000000     0.107720000000     0          
H2       H      0.416000000000     0.700200000000     0.102600000000     0          
C6       C      0.377650000000     0.719990000000     0.133940000000     0          
H3       H      0.373000000000     0.699500000000     0.146700000000     0          
O1       O      0.684430000000     0.222760000000     0.171700000000     0          
C1       C      0.608640000000     0.251700000000     0.017490000000     0          
H1       H      0.628300000000     0.252400000000     0.032200000000     0          
C2       C      0.573300000000     0.250400000000     0.028010000000     0          
C5       C      0.596650000000     0.279400000000     0.107720000000     0          
H2       H      0.584000000000     0.299800000000     0.102600000000     0          
C6       C      0.622350000000     0.280010000000     0.133940000000     0          
H3       H      0.627000000000     0.300500000000     0.146700000000     0          


