data_MERGEY

_audit_creation_method RASPA-1.0
_audit_creation_date 2020-11-2
_audit_author_name 'Rocio Bueno-Perez'

_cell_length_a    38.4015
_cell_length_b    38.4015
_cell_length_c    38.4015
_cell_angle_alpha 90
_cell_angle_beta  90
_cell_angle_gamma 90
_cell_volume      56629.7

_symmetry_cell_setting          triclinic
_symmetry_space_group_name_Hall 'P 1'
_symmetry_space_group_name_H-M  'P 1'
_symmetry_Int_Tables_number     1

_symmetry_equiv_pos_as_xyz 'x,y,z'

loop_
_atom_site_label
_atom_site_type_symbol
_atom_site_fract_x
_atom_site_fract_y
_atom_site_fract_z
_atom_site_charge
C1       C      0.365000000000     0.217900000000     0.123900000000     0          
H2       H      0.352200000000     0.197300000000     0.128600000000     0          
C3       C      0.392300000000     0.220200000000     0.099200000000     0          
H4       H      0.399100000000     0.199300000000     0.087700000000     0          
O5       O      0.326700000000     0.275500000000     0.184500000000     0          
C6       C      0.471910000000     0.248000000000     0.073740000000     0          
C7       C      0.482880000000     0.249500000000     0.109310000000     0          
H8       H      0.468200000000     0.250300000000     0.129200000000     0          
C9       C      0.865000000000     0.717900000000     0.623900000000     0          
H10      H      0.852200000000     0.697300000000     0.628600000000     0          
C11      C      0.892300000000     0.720200000000     0.599200000000     0          
H12      H      0.899100000000     0.699300000000     0.587700000000     0          
O13      O      0.826700000000     0.775500000000     0.684500000000     0          
C14      C      0.971910000000     0.748000000000     0.573740000000     0          
C15      C      0.982880000000     0.749500000000     0.609310000000     0          
H16      H      0.968200000000     0.750300000000     0.629200000000     0          
C17      C      0.635000000000     0.782100000000     0.123900000000     0          
H18      H      0.647800000000     0.802700000000     0.128600000000     0          
C19      C      0.607700000000     0.779800000000     0.099200000000     0          
H20      H      0.600900000000     0.800700000000     0.087700000000     0          
O21      O      0.673300000000     0.724500000000     0.184500000000     0          
C22      C      0.528090000000     0.752000000000     0.073740000000     0          
C23      C      0.517120000000     0.750500000000     0.109310000000     0          
H24      H      0.531800000000     0.749700000000     0.129200000000     0          
C25      C      0.135000000000     0.282100000000     0.623900000000     0          
H26      H      0.147800000000     0.302700000000     0.628600000000     0          
C27      C      0.107700000000     0.279800000000     0.599200000000     0          
H28      H      0.100900000000     0.300700000000     0.587700000000     0          
O29      O      0.173300000000     0.224500000000     0.684500000000     0          
C30      C      0.028090000000     0.252000000000     0.573740000000     0          
C31      C      0.017120000000     0.250500000000     0.609310000000     0          
H32      H      0.031800000000     0.249700000000     0.629200000000     0          
C33      C      0.635000000000     0.217900000000     0.876100000000     0          
H34      H      0.647800000000     0.197300000000     0.871400000000     0          
C35      C      0.607700000000     0.220200000000     0.900800000000     0          
H36      H      0.600900000000     0.199300000000     0.912300000000     0          
O37      O      0.673300000000     0.275500000000     0.815500000000     0          
C38      C      0.528090000000     0.248000000000     0.926260000000     0          
C39      C      0.517120000000     0.249500000000     0.890690000000     0          
H40      H      0.531800000000     0.250300000000     0.870800000000     0          
C41      C      0.135000000000     0.717900000000     0.376100000000     0          
H42      H      0.147800000000     0.697300000000     0.371400000000     0          
C43      C      0.107700000000     0.720200000000     0.400800000000     0          
H44      H      0.100900000000     0.699300000000     0.412300000000     0          
O45      O      0.173300000000     0.775500000000     0.315500000000     0          
C46      C      0.028090000000     0.748000000000     0.426260000000     0          
C47      C      0.017120000000     0.749500000000     0.390690000000     0          
H48      H      0.031800000000     0.750300000000     0.370800000000     0          
C49      C      0.365000000000     0.782100000000     0.876100000000     0          
H50      H      0.352200000000     0.802700000000     0.871400000000     0          
C51      C      0.392300000000     0.779800000000     0.900800000000     0          
H52      H      0.399100000000     0.800700000000     0.912300000000     0          
O53      O      0.326700000000     0.724500000000     0.815500000000     0          
C54      C      0.471910000000     0.752000000000     0.926260000000     0          
C55      C      0.482880000000     0.750500000000     0.890690000000     0          
H56      H      0.468200000000     0.749700000000     0.870800000000     0          
C57      C      0.865000000000     0.282100000000     0.376100000000     0          
H58      H      0.852200000000     0.302700000000     0.371400000000     0          
C59      C      0.892300000000     0.279800000000     0.400800000000     0          
H60      H      0.899100000000     0.300700000000     0.412300000000     0          
O61      O      0.826700000000     0.224500000000     0.315500000000     0          
C62      C      0.971910000000     0.252000000000     0.426260000000     0          
C63      C      0.982880000000     0.250500000000     0.390690000000     0          
H64      H      0.968200000000     0.249700000000     0.370800000000     0          
C65      C      0.123900000000     0.365000000000     0.217900000000     0          
H66      H      0.128600000000     0.352200000000     0.197300000000     0          
C67      C      0.099200000000     0.392300000000     0.220200000000     0          
H68      H      0.087700000000     0.399100000000     0.199300000000     0          
O69      O      0.184500000000     0.326700000000     0.275500000000     0          
C70      C      0.073740000000     0.471910000000     0.248000000000     0          
C71      C      0.109310000000     0.482880000000     0.249500000000     0          
H72      H      0.129200000000     0.468200000000     0.250300000000     0          
C73      C      0.623900000000     0.865000000000     0.717900000000     0          
H74      H      0.628600000000     0.852200000000     0.697300000000     0          
C75      C      0.599200000000     0.892300000000     0.720200000000     0          
H76      H      0.587700000000     0.899100000000     0.699300000000     0          
O77      O      0.684500000000     0.826700000000     0.775500000000     0          
C78      C      0.573740000000     0.971910000000     0.748000000000     0          
C79      C      0.609310000000     0.982880000000     0.749500000000     0          
H80      H      0.629200000000     0.968200000000     0.750300000000     0          
C81      C      0.123900000000     0.635000000000     0.782100000000     0          
H82      H      0.128600000000     0.647800000000     0.802700000000     0          
C83      C      0.099200000000     0.607700000000     0.779800000000     0          
H84      H      0.087700000000     0.600900000000     0.800700000000     0          
O85      O      0.184500000000     0.673300000000     0.724500000000     0          
C86      C      0.073740000000     0.528090000000     0.752000000000     0          
C87      C      0.109310000000     0.517120000000     0.750500000000     0          
H88      H      0.129200000000     0.531800000000     0.749700000000     0          
C89      C      0.623900000000     0.135000000000     0.282100000000     0          
H90      H      0.628600000000     0.147800000000     0.302700000000     0          
C91      C      0.599200000000     0.107700000000     0.279800000000     0          
H92      H      0.587700000000     0.100900000000     0.300700000000     0          
O93      O      0.684500000000     0.173300000000     0.224500000000     0          
C94      C      0.573740000000     0.028090000000     0.252000000000     0          
C95      C      0.609310000000     0.017120000000     0.250500000000     0          
H96      H      0.629200000000     0.031800000000     0.249700000000     0          
C97      C      0.876100000000     0.635000000000     0.217900000000     0          
H98      H      0.871400000000     0.647800000000     0.197300000000     0          
C99      C      0.900800000000     0.607700000000     0.220200000000     0          
H100     H      0.912300000000     0.600900000000     0.199300000000     0          
O101     O      0.815500000000     0.673300000000     0.275500000000     0          
C102     C      0.926260000000     0.528090000000     0.248000000000     0          
C103     C      0.890690000000     0.517120000000     0.249500000000     0          
H104     H      0.870800000000     0.531800000000     0.250300000000     0          
C105     C      0.376100000000     0.135000000000     0.717900000000     0          
H106     H      0.371400000000     0.147800000000     0.697300000000     0          
C107     C      0.400800000000     0.107700000000     0.720200000000     0          
H108     H      0.412300000000     0.100900000000     0.699300000000     0          
O109     O      0.315500000000     0.173300000000     0.775500000000     0          
C110     C      0.426260000000     0.028090000000     0.748000000000     0          
C111     C      0.390690000000     0.017120000000     0.749500000000     0          
H112     H      0.370800000000     0.031800000000     0.750300000000     0          
C113     C      0.876100000000     0.365000000000     0.782100000000     0          
H114     H      0.871400000000     0.352200000000     0.802700000000     0          
C115     C      0.900800000000     0.392300000000     0.779800000000     0          
H116     H      0.912300000000     0.399100000000     0.800700000000     0          
O117     O      0.815500000000     0.326700000000     0.724500000000     0          
C118     C      0.926260000000     0.471910000000     0.752000000000     0          
C119     C      0.890690000000     0.482880000000     0.750500000000     0          
H120     H      0.870800000000     0.468200000000     0.749700000000     0          
C121     C      0.376100000000     0.865000000000     0.282100000000     0          
H122     H      0.371400000000     0.852200000000     0.302700000000     0          
C123     C      0.400800000000     0.892300000000     0.279800000000     0          
H124     H      0.412300000000     0.899100000000     0.300700000000     0          
O125     O      0.315500000000     0.826700000000     0.224500000000     0          
C126     C      0.426260000000     0.971910000000     0.252000000000     0          
C127     C      0.390690000000     0.982880000000     0.250500000000     0          
H128     H      0.370800000000     0.968200000000     0.249700000000     0          
C129     C      0.217900000000     0.123900000000     0.365000000000     0          
H130     H      0.197300000000     0.128600000000     0.352200000000     0          
C131     C      0.220200000000     0.099200000000     0.392300000000     0          
H132     H      0.199300000000     0.087700000000     0.399100000000     0          
O133     O      0.275500000000     0.184500000000     0.326700000000     0          
C134     C      0.248000000000     0.073740000000     0.471910000000     0          
C135     C      0.249500000000     0.109310000000     0.482880000000     0          
H136     H      0.250300000000     0.129200000000     0.468200000000     0          
C137     C      0.717900000000     0.623900000000     0.865000000000     0          
H138     H      0.697300000000     0.628600000000     0.852200000000     0          
C139     C      0.720200000000     0.599200000000     0.892300000000     0          
H140     H      0.699300000000     0.587700000000     0.899100000000     0          
O141     O      0.775500000000     0.684500000000     0.826700000000     0          
C142     C      0.748000000000     0.573740000000     0.971910000000     0          
C143     C      0.749500000000     0.609310000000     0.982880000000     0          
H144     H      0.750300000000     0.629200000000     0.968200000000     0          
C145     C      0.782100000000     0.123900000000     0.635000000000     0          
H146     H      0.802700000000     0.128600000000     0.647800000000     0          
C147     C      0.779800000000     0.099200000000     0.607700000000     0          
H148     H      0.800700000000     0.087700000000     0.600900000000     0          
O149     O      0.724500000000     0.184500000000     0.673300000000     0          
C150     C      0.752000000000     0.073740000000     0.528090000000     0          
C151     C      0.750500000000     0.109310000000     0.517120000000     0          
H152     H      0.749700000000     0.129200000000     0.531800000000     0          
C153     C      0.282100000000     0.623900000000     0.135000000000     0          
H154     H      0.302700000000     0.628600000000     0.147800000000     0          
C155     C      0.279800000000     0.599200000000     0.107700000000     0          
H156     H      0.300700000000     0.587700000000     0.100900000000     0          
O157     O      0.224500000000     0.684500000000     0.173300000000     0          
C158     C      0.252000000000     0.573740000000     0.028090000000     0          
C159     C      0.250500000000     0.609310000000     0.017120000000     0          
H160     H      0.249700000000     0.629200000000     0.031800000000     0          
C161     C      0.217900000000     0.876100000000     0.635000000000     0          
H162     H      0.197300000000     0.871400000000     0.647800000000     0          
C163     C      0.220200000000     0.900800000000     0.607700000000     0          
H164     H      0.199300000000     0.912300000000     0.600900000000     0          
O165     O      0.275500000000     0.815500000000     0.673300000000     0          
C166     C      0.248000000000     0.926260000000     0.528090000000     0          
C167     C      0.249500000000     0.890690000000     0.517120000000     0          
H168     H      0.250300000000     0.870800000000     0.531800000000     0          
C169     C      0.717900000000     0.376100000000     0.135000000000     0          
H170     H      0.697300000000     0.371400000000     0.147800000000     0          
C171     C      0.720200000000     0.400800000000     0.107700000000     0          
H172     H      0.699300000000     0.412300000000     0.100900000000     0          
O173     O      0.775500000000     0.315500000000     0.173300000000     0          
C174     C      0.748000000000     0.426260000000     0.028090000000     0          
C175     C      0.749500000000     0.390690000000     0.017120000000     0          
H176     H      0.750300000000     0.370800000000     0.031800000000     0          
C177     C      0.782100000000     0.876100000000     0.365000000000     0          
H178     H      0.802700000000     0.871400000000     0.352200000000     0          
C179     C      0.779800000000     0.900800000000     0.392300000000     0          
H180     H      0.800700000000     0.912300000000     0.399100000000     0          
O181     O      0.724500000000     0.815500000000     0.326700000000     0          
C182     C      0.752000000000     0.926260000000     0.471910000000     0          
C183     C      0.750500000000     0.890690000000     0.482880000000     0          
H184     H      0.749700000000     0.870800000000     0.468200000000     0          
C185     C      0.282100000000     0.376100000000     0.865000000000     0          
H186     H      0.302700000000     0.371400000000     0.852200000000     0          
C187     C      0.279800000000     0.400800000000     0.892300000000     0          
H188     H      0.300700000000     0.412300000000     0.899100000000     0          
O189     O      0.224500000000     0.315500000000     0.826700000000     0          
C190     C      0.252000000000     0.426260000000     0.971910000000     0          
C191     C      0.250500000000     0.390690000000     0.982880000000     0          
H192     H      0.249700000000     0.370800000000     0.968200000000     0          
C193     C      0.217900000000     0.365000000000     0.876100000000     0          
H194     H      0.197300000000     0.352200000000     0.871400000000     0          
C195     C      0.220200000000     0.392300000000     0.900800000000     0          
H196     H      0.199300000000     0.399100000000     0.912300000000     0          
O197     O      0.275500000000     0.326700000000     0.815500000000     0          
C198     C      0.248000000000     0.471910000000     0.926260000000     0          
C199     C      0.249500000000     0.482880000000     0.890690000000     0          
H200     H      0.250300000000     0.468200000000     0.870800000000     0          
C201     C      0.717900000000     0.865000000000     0.376100000000     0          
H202     H      0.697300000000     0.852200000000     0.371400000000     0          
C203     C      0.720200000000     0.892300000000     0.400800000000     0          
H204     H      0.699300000000     0.899100000000     0.412300000000     0          
O205     O      0.775500000000     0.826700000000     0.315500000000     0          
C206     C      0.748000000000     0.971910000000     0.426260000000     0          
C207     C      0.749500000000     0.982880000000     0.390690000000     0          
H208     H      0.750300000000     0.968200000000     0.370800000000     0          
C209     C      0.782100000000     0.635000000000     0.876100000000     0          
H210     H      0.802700000000     0.647800000000     0.871400000000     0          
C211     C      0.779800000000     0.607700000000     0.900800000000     0          
H212     H      0.800700000000     0.600900000000     0.912300000000     0          
O213     O      0.724500000000     0.673300000000     0.815500000000     0          
C214     C      0.752000000000     0.528090000000     0.926260000000     0          
C215     C      0.750500000000     0.517120000000     0.890690000000     0          
H216     H      0.749700000000     0.531800000000     0.870800000000     0          
C217     C      0.282100000000     0.135000000000     0.376100000000     0          
H218     H      0.302700000000     0.147800000000     0.371400000000     0          
C219     C      0.279800000000     0.107700000000     0.400800000000     0          
H220     H      0.300700000000     0.100900000000     0.412300000000     0          
O221     O      0.224500000000     0.173300000000     0.315500000000     0          
C222     C      0.252000000000     0.028090000000     0.426260000000     0          
C223     C      0.250500000000     0.017120000000     0.390690000000     0          
H224     H      0.249700000000     0.031800000000     0.370800000000     0          
C225     C      0.217900000000     0.635000000000     0.123900000000     0          
H226     H      0.197300000000     0.647800000000     0.128600000000     0          
C227     C      0.220200000000     0.607700000000     0.099200000000     0          
H228     H      0.199300000000     0.600900000000     0.087700000000     0          
O229     O      0.275500000000     0.673300000000     0.184500000000     0          
C230     C      0.248000000000     0.528090000000     0.073740000000     0          
C231     C      0.249500000000     0.517120000000     0.109310000000     0          
H232     H      0.250300000000     0.531800000000     0.129200000000     0          
C233     C      0.717900000000     0.135000000000     0.623900000000     0          
H234     H      0.697300000000     0.147800000000     0.628600000000     0          
C235     C      0.720200000000     0.107700000000     0.599200000000     0          
H236     H      0.699300000000     0.100900000000     0.587700000000     0          
O237     O      0.775500000000     0.173300000000     0.684500000000     0          
C238     C      0.748000000000     0.028090000000     0.573740000000     0          
C239     C      0.749500000000     0.017120000000     0.609310000000     0          
H240     H      0.750300000000     0.031800000000     0.629200000000     0          
C241     C      0.782100000000     0.365000000000     0.123900000000     0          
H242     H      0.802700000000     0.352200000000     0.128600000000     0          
C243     C      0.779800000000     0.392300000000     0.099200000000     0          
H244     H      0.800700000000     0.399100000000     0.087700000000     0          
O245     O      0.724500000000     0.326700000000     0.184500000000     0          
C246     C      0.752000000000     0.471910000000     0.073740000000     0          
C247     C      0.750500000000     0.482880000000     0.109310000000     0          
H248     H      0.749700000000     0.468200000000     0.129200000000     0          
C249     C      0.282100000000     0.865000000000     0.623900000000     0          
H250     H      0.302700000000     0.852200000000     0.628600000000     0          
C251     C      0.279800000000     0.892300000000     0.599200000000     0          
H252     H      0.300700000000     0.899100000000     0.587700000000     0          
O253     O      0.224500000000     0.826700000000     0.684500000000     0          
C254     C      0.252000000000     0.971910000000     0.573740000000     0          
C255     C      0.250500000000     0.982880000000     0.609310000000     0          
H256     H      0.249700000000     0.968200000000     0.629200000000     0          
C257     C      0.365000000000     0.123900000000     0.782100000000     0          
H258     H      0.352200000000     0.128600000000     0.802700000000     0          
C259     C      0.392300000000     0.099200000000     0.779800000000     0          
H260     H      0.399100000000     0.087700000000     0.800700000000     0          
O261     O      0.326700000000     0.184500000000     0.724500000000     0          
C262     C      0.471910000000     0.073740000000     0.752000000000     0          
C263     C      0.482880000000     0.109310000000     0.750500000000     0          
H264     H      0.468200000000     0.129200000000     0.749700000000     0          
C265     C      0.865000000000     0.623900000000     0.282100000000     0          
H266     H      0.852200000000     0.628600000000     0.302700000000     0          
C267     C      0.892300000000     0.599200000000     0.279800000000     0          
H268     H      0.899100000000     0.587700000000     0.300700000000     0          
O269     O      0.826700000000     0.684500000000     0.224500000000     0          
C270     C      0.971910000000     0.573740000000     0.252000000000     0          
C271     C      0.982880000000     0.609310000000     0.250500000000     0          
H272     H      0.968200000000     0.629200000000     0.249700000000     0          
C273     C      0.635000000000     0.123900000000     0.217900000000     0          
H274     H      0.647800000000     0.128600000000     0.197300000000     0          
C275     C      0.607700000000     0.099200000000     0.220200000000     0          
H276     H      0.600900000000     0.087700000000     0.199300000000     0          
O277     O      0.673300000000     0.184500000000     0.275500000000     0          
C278     C      0.528090000000     0.073740000000     0.248000000000     0          
C279     C      0.517120000000     0.109310000000     0.249500000000     0          
H280     H      0.531800000000     0.129200000000     0.250300000000     0          
C281     C      0.135000000000     0.623900000000     0.717900000000     0          
H282     H      0.147800000000     0.628600000000     0.697300000000     0          
C283     C      0.107700000000     0.599200000000     0.720200000000     0          
H284     H      0.100900000000     0.587700000000     0.699300000000     0          
O285     O      0.173300000000     0.684500000000     0.775500000000     0          
C286     C      0.028090000000     0.573740000000     0.748000000000     0          
C287     C      0.017120000000     0.609310000000     0.749500000000     0          
H288     H      0.031800000000     0.629200000000     0.750300000000     0          
C289     C      0.635000000000     0.876100000000     0.782100000000     0          
H290     H      0.647800000000     0.871400000000     0.802700000000     0          
C291     C      0.607700000000     0.900800000000     0.779800000000     0          
H292     H      0.600900000000     0.912300000000     0.800700000000     0          
O293     O      0.673300000000     0.815500000000     0.724500000000     0          
C294     C      0.528090000000     0.926260000000     0.752000000000     0          
C295     C      0.517120000000     0.890690000000     0.750500000000     0          
H296     H      0.531800000000     0.870800000000     0.749700000000     0          
C297     C      0.135000000000     0.376100000000     0.282100000000     0          
H298     H      0.147800000000     0.371400000000     0.302700000000     0          
C299     C      0.107700000000     0.400800000000     0.279800000000     0          
H300     H      0.100900000000     0.412300000000     0.300700000000     0          
O301     O      0.173300000000     0.315500000000     0.224500000000     0          
C302     C      0.028090000000     0.426260000000     0.252000000000     0          
C303     C      0.017120000000     0.390690000000     0.250500000000     0          
H304     H      0.031800000000     0.370800000000     0.249700000000     0          
C305     C      0.365000000000     0.876100000000     0.217900000000     0          
H306     H      0.352200000000     0.871400000000     0.197300000000     0          
C307     C      0.392300000000     0.900800000000     0.220200000000     0          
H308     H      0.399100000000     0.912300000000     0.199300000000     0          
O309     O      0.326700000000     0.815500000000     0.275500000000     0          
C310     C      0.471910000000     0.926260000000     0.248000000000     0          
C311     C      0.482880000000     0.890690000000     0.249500000000     0          
H312     H      0.468200000000     0.870800000000     0.250300000000     0          
C313     C      0.865000000000     0.376100000000     0.717900000000     0          
H314     H      0.852200000000     0.371400000000     0.697300000000     0          
C315     C      0.892300000000     0.400800000000     0.720200000000     0          
H316     H      0.899100000000     0.412300000000     0.699300000000     0          
O317     O      0.826700000000     0.315500000000     0.775500000000     0          
C318     C      0.971910000000     0.426260000000     0.748000000000     0          
C319     C      0.982880000000     0.390690000000     0.749500000000     0          
H320     H      0.968200000000     0.370800000000     0.750300000000     0          
C321     C      0.123900000000     0.217900000000     0.635000000000     0          
H322     H      0.128600000000     0.197300000000     0.647800000000     0          
C323     C      0.099200000000     0.220200000000     0.607700000000     0          
H324     H      0.087700000000     0.199300000000     0.600900000000     0          
O325     O      0.184500000000     0.275500000000     0.673300000000     0          
C326     C      0.073740000000     0.248000000000     0.528090000000     0          
C327     C      0.109310000000     0.249500000000     0.517120000000     0          
H328     H      0.129200000000     0.250300000000     0.531800000000     0          
C329     C      0.623900000000     0.717900000000     0.135000000000     0          
H330     H      0.628600000000     0.697300000000     0.147800000000     0          
C331     C      0.599200000000     0.720200000000     0.107700000000     0          
H332     H      0.587700000000     0.699300000000     0.100900000000     0          
O333     O      0.684500000000     0.775500000000     0.173300000000     0          
C334     C      0.573740000000     0.748000000000     0.028090000000     0          
C335     C      0.609310000000     0.749500000000     0.017120000000     0          
H336     H      0.629200000000     0.750300000000     0.031800000000     0          
C337     C      0.123900000000     0.782100000000     0.365000000000     0          
H338     H      0.128600000000     0.802700000000     0.352200000000     0          
C339     C      0.099200000000     0.779800000000     0.392300000000     0          
H340     H      0.087700000000     0.800700000000     0.399100000000     0          
O341     O      0.184500000000     0.724500000000     0.326700000000     0          
C342     C      0.073740000000     0.752000000000     0.471910000000     0          
C343     C      0.109310000000     0.750500000000     0.482880000000     0          
H344     H      0.129200000000     0.749700000000     0.468200000000     0          
C345     C      0.623900000000     0.282100000000     0.865000000000     0          
H346     H      0.628600000000     0.302700000000     0.852200000000     0          
C347     C      0.599200000000     0.279800000000     0.892300000000     0          
H348     H      0.587700000000     0.300700000000     0.899100000000     0          
O349     O      0.684500000000     0.224500000000     0.826700000000     0          
C350     C      0.573740000000     0.252000000000     0.971910000000     0          
C351     C      0.609310000000     0.250500000000     0.982880000000     0          
H352     H      0.629200000000     0.249700000000     0.968200000000     0          
C353     C      0.876100000000     0.217900000000     0.365000000000     0          
H354     H      0.871400000000     0.197300000000     0.352200000000     0          
C355     C      0.900800000000     0.220200000000     0.392300000000     0          
H356     H      0.912300000000     0.199300000000     0.399100000000     0          
O357     O      0.815500000000     0.275500000000     0.326700000000     0          
C358     C      0.926260000000     0.248000000000     0.471910000000     0          
C359     C      0.890690000000     0.249500000000     0.482880000000     0          
H360     H      0.870800000000     0.250300000000     0.468200000000     0          
C361     C      0.376100000000     0.717900000000     0.865000000000     0          
H362     H      0.371400000000     0.697300000000     0.852200000000     0          
C363     C      0.400800000000     0.720200000000     0.892300000000     0          
H364     H      0.412300000000     0.699300000000     0.899100000000     0          
O365     O      0.315500000000     0.775500000000     0.826700000000     0          
C366     C      0.426260000000     0.748000000000     0.971910000000     0          
C367     C      0.390690000000     0.749500000000     0.982880000000     0          
H368     H      0.370800000000     0.750300000000     0.968200000000     0          
C369     C      0.876100000000     0.782100000000     0.635000000000     0          
H370     H      0.871400000000     0.802700000000     0.647800000000     0          
C371     C      0.900800000000     0.779800000000     0.607700000000     0          
H372     H      0.912300000000     0.800700000000     0.600900000000     0          
O373     O      0.815500000000     0.724500000000     0.673300000000     0          
C374     C      0.926260000000     0.752000000000     0.528090000000     0          
C375     C      0.890690000000     0.750500000000     0.517120000000     0          
H376     H      0.870800000000     0.749700000000     0.531800000000     0          
C377     C      0.376100000000     0.282100000000     0.135000000000     0          
H378     H      0.371400000000     0.302700000000     0.147800000000     0          
C379     C      0.400800000000     0.279800000000     0.107700000000     0          
H380     H      0.412300000000     0.300700000000     0.100900000000     0          
O381     O      0.315500000000     0.224500000000     0.173300000000     0          
C382     C      0.426260000000     0.252000000000     0.028090000000     0          
C383     C      0.390690000000     0.250500000000     0.017120000000     0          
H384     H      0.370800000000     0.249700000000     0.031800000000     0          
C385     C      0.635000000000     0.782100000000     0.876100000000     0          
H386     H      0.647800000000     0.802700000000     0.871400000000     0          
C387     C      0.607700000000     0.779800000000     0.900800000000     0          
H388     H      0.600900000000     0.800700000000     0.912300000000     0          
O389     O      0.673300000000     0.724500000000     0.815500000000     0          
C390     C      0.528090000000     0.752000000000     0.926260000000     0          
C391     C      0.517120000000     0.750500000000     0.890690000000     0          
H392     H      0.531800000000     0.749700000000     0.870800000000     0          
C393     C      0.135000000000     0.282100000000     0.376100000000     0          
H394     H      0.147800000000     0.302700000000     0.371400000000     0          
C395     C      0.107700000000     0.279800000000     0.400800000000     0          
H396     H      0.100900000000     0.300700000000     0.412300000000     0          
O397     O      0.173300000000     0.224500000000     0.315500000000     0          
C398     C      0.028090000000     0.252000000000     0.426260000000     0          
C399     C      0.017120000000     0.250500000000     0.390690000000     0          
H400     H      0.031800000000     0.249700000000     0.370800000000     0          
C401     C      0.365000000000     0.217900000000     0.876100000000     0          
H402     H      0.352200000000     0.197300000000     0.871400000000     0          
C403     C      0.392300000000     0.220200000000     0.900800000000     0          
H404     H      0.399100000000     0.199300000000     0.912300000000     0          
O405     O      0.326700000000     0.275500000000     0.815500000000     0          
C406     C      0.471910000000     0.248000000000     0.926260000000     0          
C407     C      0.482880000000     0.249500000000     0.890690000000     0          
H408     H      0.468200000000     0.250300000000     0.870800000000     0          
C409     C      0.865000000000     0.717900000000     0.376100000000     0          
H410     H      0.852200000000     0.697300000000     0.371400000000     0          
C411     C      0.892300000000     0.720200000000     0.400800000000     0          
H412     H      0.899100000000     0.699300000000     0.412300000000     0          
O413     O      0.826700000000     0.775500000000     0.315500000000     0          
C414     C      0.971910000000     0.748000000000     0.426260000000     0          
C415     C      0.982880000000     0.749500000000     0.390690000000     0          
H416     H      0.968200000000     0.750300000000     0.370800000000     0          
C417     C      0.365000000000     0.782100000000     0.123900000000     0          
H418     H      0.352200000000     0.802700000000     0.128600000000     0          
C419     C      0.392300000000     0.779800000000     0.099200000000     0          
H420     H      0.399100000000     0.800700000000     0.087700000000     0          
O421     O      0.326700000000     0.724500000000     0.184500000000     0          
C422     C      0.471910000000     0.752000000000     0.073740000000     0          
C423     C      0.482880000000     0.750500000000     0.109310000000     0          
H424     H      0.468200000000     0.749700000000     0.129200000000     0          
C425     C      0.865000000000     0.282100000000     0.623900000000     0          
H426     H      0.852200000000     0.302700000000     0.628600000000     0          
C427     C      0.892300000000     0.279800000000     0.599200000000     0          
H428     H      0.899100000000     0.300700000000     0.587700000000     0          
O429     O      0.826700000000     0.224500000000     0.684500000000     0          
C430     C      0.971910000000     0.252000000000     0.573740000000     0          
C431     C      0.982880000000     0.250500000000     0.609310000000     0          
H432     H      0.968200000000     0.249700000000     0.629200000000     0          
C433     C      0.635000000000     0.217900000000     0.123900000000     0          
H434     H      0.647800000000     0.197300000000     0.128600000000     0          
C435     C      0.607700000000     0.220200000000     0.099200000000     0          
H436     H      0.600900000000     0.199300000000     0.087700000000     0          
O437     O      0.673300000000     0.275500000000     0.184500000000     0          
C438     C      0.528090000000     0.248000000000     0.073740000000     0          
C439     C      0.517120000000     0.249500000000     0.109310000000     0          
H440     H      0.531800000000     0.250300000000     0.129200000000     0          
C441     C      0.135000000000     0.717900000000     0.623900000000     0          
H442     H      0.147800000000     0.697300000000     0.628600000000     0          
C443     C      0.107700000000     0.720200000000     0.599200000000     0          
H444     H      0.100900000000     0.699300000000     0.587700000000     0          
O445     O      0.173300000000     0.775500000000     0.684500000000     0          
C446     C      0.028090000000     0.748000000000     0.573740000000     0          
C447     C      0.017120000000     0.749500000000     0.609310000000     0          
H448     H      0.031800000000     0.750300000000     0.629200000000     0          
C449     C      0.876100000000     0.635000000000     0.782100000000     0          
H450     H      0.871400000000     0.647800000000     0.802700000000     0          
C451     C      0.900800000000     0.607700000000     0.779800000000     0          
H452     H      0.912300000000     0.600900000000     0.800700000000     0          
O453     O      0.815500000000     0.673300000000     0.724500000000     0          
C454     C      0.926260000000     0.528090000000     0.752000000000     0          
C455     C      0.890690000000     0.517120000000     0.750500000000     0          
H456     H      0.870800000000     0.531800000000     0.749700000000     0          
C457     C      0.376100000000     0.135000000000     0.282100000000     0          
H458     H      0.371400000000     0.147800000000     0.302700000000     0          
C459     C      0.400800000000     0.107700000000     0.279800000000     0          
H460     H      0.412300000000     0.100900000000     0.300700000000     0          
O461     O      0.315500000000     0.173300000000     0.224500000000     0          
C462     C      0.426260000000     0.028090000000     0.252000000000     0          
C463     C      0.390690000000     0.017120000000     0.250500000000     0          
H464     H      0.370800000000     0.031800000000     0.249700000000     0          
C465     C      0.876100000000     0.365000000000     0.217900000000     0          
H466     H      0.871400000000     0.352200000000     0.197300000000     0          
C467     C      0.900800000000     0.392300000000     0.220200000000     0          
H468     H      0.912300000000     0.399100000000     0.199300000000     0          
O469     O      0.815500000000     0.326700000000     0.275500000000     0          
C470     C      0.926260000000     0.471910000000     0.248000000000     0          
C471     C      0.890690000000     0.482880000000     0.249500000000     0          
H472     H      0.870800000000     0.468200000000     0.250300000000     0          
C473     C      0.376100000000     0.865000000000     0.717900000000     0          
H474     H      0.371400000000     0.852200000000     0.697300000000     0          
C475     C      0.400800000000     0.892300000000     0.720200000000     0          
H476     H      0.412300000000     0.899100000000     0.699300000000     0          
O477     O      0.315500000000     0.826700000000     0.775500000000     0          
C478     C      0.426260000000     0.971910000000     0.748000000000     0          
C479     C      0.390690000000     0.982880000000     0.749500000000     0          
H480     H      0.370800000000     0.968200000000     0.750300000000     0          
C481     C      0.123900000000     0.365000000000     0.782100000000     0          
H482     H      0.128600000000     0.352200000000     0.802700000000     0          
C483     C      0.099200000000     0.392300000000     0.779800000000     0          
H484     H      0.087700000000     0.399100000000     0.800700000000     0          
O485     O      0.184500000000     0.326700000000     0.724500000000     0          
C486     C      0.073740000000     0.471910000000     0.752000000000     0          
C487     C      0.109310000000     0.482880000000     0.750500000000     0          
H488     H      0.129200000000     0.468200000000     0.749700000000     0          
C489     C      0.623900000000     0.865000000000     0.282100000000     0          
H490     H      0.628600000000     0.852200000000     0.302700000000     0          
C491     C      0.599200000000     0.892300000000     0.279800000000     0          
H492     H      0.587700000000     0.899100000000     0.300700000000     0          
O493     O      0.684500000000     0.826700000000     0.224500000000     0          
C494     C      0.573740000000     0.971910000000     0.252000000000     0          
C495     C      0.609310000000     0.982880000000     0.250500000000     0          
H496     H      0.629200000000     0.968200000000     0.249700000000     0          
C497     C      0.123900000000     0.635000000000     0.217900000000     0          
H498     H      0.128600000000     0.647800000000     0.197300000000     0          
C499     C      0.099200000000     0.607700000000     0.220200000000     0          
H500     H      0.087700000000     0.600900000000     0.199300000000     0          
O501     O      0.184500000000     0.673300000000     0.275500000000     0          
C502     C      0.073740000000     0.528090000000     0.248000000000     0          
C503     C      0.109310000000     0.517120000000     0.249500000000     0          
H504     H      0.129200000000     0.531800000000     0.250300000000     0          
C505     C      0.623900000000     0.135000000000     0.717900000000     0          
H506     H      0.628600000000     0.147800000000     0.697300000000     0          
C507     C      0.599200000000     0.107700000000     0.720200000000     0          
H508     H      0.587700000000     0.100900000000     0.699300000000     0          
O509     O      0.684500000000     0.173300000000     0.775500000000     0          
C510     C      0.573740000000     0.028090000000     0.748000000000     0          
C511     C      0.609310000000     0.017120000000     0.749500000000     0          
H512     H      0.629200000000     0.031800000000     0.750300000000     0          
C513     C      0.782100000000     0.876100000000     0.635000000000     0          
H514     H      0.802700000000     0.871400000000     0.647800000000     0          
C515     C      0.779800000000     0.900800000000     0.607700000000     0          
H516     H      0.800700000000     0.912300000000     0.600900000000     0          
O517     O      0.724500000000     0.815500000000     0.673300000000     0          
C518     C      0.752000000000     0.926260000000     0.528090000000     0          
C519     C      0.750500000000     0.890690000000     0.517120000000     0          
H520     H      0.749700000000     0.870800000000     0.531800000000     0          
C521     C      0.282100000000     0.376100000000     0.135000000000     0          
H522     H      0.302700000000     0.371400000000     0.147800000000     0          
C523     C      0.279800000000     0.400800000000     0.107700000000     0          
H524     H      0.300700000000     0.412300000000     0.100900000000     0          
O525     O      0.224500000000     0.315500000000     0.173300000000     0          
C526     C      0.252000000000     0.426260000000     0.028090000000     0          
C527     C      0.250500000000     0.390690000000     0.017120000000     0          
H528     H      0.249700000000     0.370800000000     0.031800000000     0          
C529     C      0.217900000000     0.876100000000     0.365000000000     0          
H530     H      0.197300000000     0.871400000000     0.352200000000     0          
C531     C      0.220200000000     0.900800000000     0.392300000000     0          
H532     H      0.199300000000     0.912300000000     0.399100000000     0          
O533     O      0.275500000000     0.815500000000     0.326700000000     0          
C534     C      0.248000000000     0.926260000000     0.471910000000     0          
C535     C      0.249500000000     0.890690000000     0.482880000000     0          
H536     H      0.250300000000     0.870800000000     0.468200000000     0          
C537     C      0.717900000000     0.376100000000     0.865000000000     0          
H538     H      0.697300000000     0.371400000000     0.852200000000     0          
C539     C      0.720200000000     0.400800000000     0.892300000000     0          
H540     H      0.699300000000     0.412300000000     0.899100000000     0          
O541     O      0.775500000000     0.315500000000     0.826700000000     0          
C542     C      0.748000000000     0.426260000000     0.971910000000     0          
C543     C      0.749500000000     0.390690000000     0.982880000000     0          
H544     H      0.750300000000     0.370800000000     0.968200000000     0          
C545     C      0.782100000000     0.123900000000     0.365000000000     0          
H546     H      0.802700000000     0.128600000000     0.352200000000     0          
C547     C      0.779800000000     0.099200000000     0.392300000000     0          
H548     H      0.800700000000     0.087700000000     0.399100000000     0          
O549     O      0.724500000000     0.184500000000     0.326700000000     0          
C550     C      0.752000000000     0.073740000000     0.471910000000     0          
C551     C      0.750500000000     0.109310000000     0.482880000000     0          
H552     H      0.749700000000     0.129200000000     0.468200000000     0          
C553     C      0.282100000000     0.623900000000     0.865000000000     0          
H554     H      0.302700000000     0.628600000000     0.852200000000     0          
C555     C      0.279800000000     0.599200000000     0.892300000000     0          
H556     H      0.300700000000     0.587700000000     0.899100000000     0          
O557     O      0.224500000000     0.684500000000     0.826700000000     0          
C558     C      0.252000000000     0.573740000000     0.971910000000     0          
C559     C      0.250500000000     0.609310000000     0.982880000000     0          
H560     H      0.249700000000     0.629200000000     0.968200000000     0          
C561     C      0.217900000000     0.123900000000     0.635000000000     0          
H562     H      0.197300000000     0.128600000000     0.647800000000     0          
C563     C      0.220200000000     0.099200000000     0.607700000000     0          
H564     H      0.199300000000     0.087700000000     0.600900000000     0          
O565     O      0.275500000000     0.184500000000     0.673300000000     0          
C566     C      0.248000000000     0.073740000000     0.528090000000     0          
C567     C      0.249500000000     0.109310000000     0.517120000000     0          
H568     H      0.250300000000     0.129200000000     0.531800000000     0          
C569     C      0.717900000000     0.623900000000     0.135000000000     0          
H570     H      0.697300000000     0.628600000000     0.147800000000     0          
C571     C      0.720200000000     0.599200000000     0.107700000000     0          
H572     H      0.699300000000     0.587700000000     0.100900000000     0          
O573     O      0.775500000000     0.684500000000     0.173300000000     0          
C574     C      0.748000000000     0.573740000000     0.028090000000     0          
C575     C      0.749500000000     0.609310000000     0.017120000000     0          
H576     H      0.750300000000     0.629200000000     0.031800000000     0          
C577     C      0.782100000000     0.635000000000     0.123900000000     0          
H578     H      0.802700000000     0.647800000000     0.128600000000     0          
C579     C      0.779800000000     0.607700000000     0.099200000000     0          
H580     H      0.800700000000     0.600900000000     0.087700000000     0          
O581     O      0.724500000000     0.673300000000     0.184500000000     0          
C582     C      0.752000000000     0.528090000000     0.073740000000     0          
C583     C      0.750500000000     0.517120000000     0.109310000000     0          
H584     H      0.749700000000     0.531800000000     0.129200000000     0          
C585     C      0.282100000000     0.135000000000     0.623900000000     0          
H586     H      0.302700000000     0.147800000000     0.628600000000     0          
C587     C      0.279800000000     0.107700000000     0.599200000000     0          
H588     H      0.300700000000     0.100900000000     0.587700000000     0          
O589     O      0.224500000000     0.173300000000     0.684500000000     0          
C590     C      0.252000000000     0.028090000000     0.573740000000     0          
C591     C      0.250500000000     0.017120000000     0.609310000000     0          
H592     H      0.249700000000     0.031800000000     0.629200000000     0          
C593     C      0.217900000000     0.365000000000     0.123900000000     0          
H594     H      0.197300000000     0.352200000000     0.128600000000     0          
C595     C      0.220200000000     0.392300000000     0.099200000000     0          
H596     H      0.199300000000     0.399100000000     0.087700000000     0          
O597     O      0.275500000000     0.326700000000     0.184500000000     0          
C598     C      0.248000000000     0.471910000000     0.073740000000     0          
C599     C      0.249500000000     0.482880000000     0.109310000000     0          
H600     H      0.250300000000     0.468200000000     0.129200000000     0          
C601     C      0.717900000000     0.865000000000     0.623900000000     0          
H602     H      0.697300000000     0.852200000000     0.628600000000     0          
C603     C      0.720200000000     0.892300000000     0.599200000000     0          
H604     H      0.699300000000     0.899100000000     0.587700000000     0          
O605     O      0.775500000000     0.826700000000     0.684500000000     0          
C606     C      0.748000000000     0.971910000000     0.573740000000     0          
C607     C      0.749500000000     0.982880000000     0.609310000000     0          
H608     H      0.750300000000     0.968200000000     0.629200000000     0          
C609     C      0.782100000000     0.365000000000     0.876100000000     0          
H610     H      0.802700000000     0.352200000000     0.871400000000     0          
C611     C      0.779800000000     0.392300000000     0.900800000000     0          
H612     H      0.800700000000     0.399100000000     0.912300000000     0          
O613     O      0.724500000000     0.326700000000     0.815500000000     0          
C614     C      0.752000000000     0.471910000000     0.926260000000     0          
C615     C      0.750500000000     0.482880000000     0.890690000000     0          
H616     H      0.749700000000     0.468200000000     0.870800000000     0          
C617     C      0.282100000000     0.865000000000     0.376100000000     0          
H618     H      0.302700000000     0.852200000000     0.371400000000     0          
C619     C      0.279800000000     0.892300000000     0.400800000000     0          
H620     H      0.300700000000     0.899100000000     0.412300000000     0          
O621     O      0.224500000000     0.826700000000     0.315500000000     0          
C622     C      0.252000000000     0.971910000000     0.426260000000     0          
C623     C      0.250500000000     0.982880000000     0.390690000000     0          
H624     H      0.249700000000     0.968200000000     0.370800000000     0          
C625     C      0.217900000000     0.635000000000     0.876100000000     0          
H626     H      0.197300000000     0.647800000000     0.871400000000     0          
C627     C      0.220200000000     0.607700000000     0.900800000000     0          
H628     H      0.199300000000     0.600900000000     0.912300000000     0          
O629     O      0.275500000000     0.673300000000     0.815500000000     0          
C630     C      0.248000000000     0.528090000000     0.926260000000     0          
C631     C      0.249500000000     0.517120000000     0.890690000000     0          
H632     H      0.250300000000     0.531800000000     0.870800000000     0          
C633     C      0.717900000000     0.135000000000     0.376100000000     0          
H634     H      0.697300000000     0.147800000000     0.371400000000     0          
C635     C      0.720200000000     0.107700000000     0.400800000000     0          
H636     H      0.699300000000     0.100900000000     0.412300000000     0          
O637     O      0.775500000000     0.173300000000     0.315500000000     0          
C638     C      0.748000000000     0.028090000000     0.426260000000     0          
C639     C      0.749500000000     0.017120000000     0.390690000000     0          
H640     H      0.750300000000     0.031800000000     0.370800000000     0          
C641     C      0.635000000000     0.876100000000     0.217900000000     0          
H642     H      0.647800000000     0.871400000000     0.197300000000     0          
C643     C      0.607700000000     0.900800000000     0.220200000000     0          
H644     H      0.600900000000     0.912300000000     0.199300000000     0          
O645     O      0.673300000000     0.815500000000     0.275500000000     0          
C646     C      0.528090000000     0.926260000000     0.248000000000     0          
C647     C      0.517120000000     0.890690000000     0.249500000000     0          
H648     H      0.531800000000     0.870800000000     0.250300000000     0          
C649     C      0.135000000000     0.376100000000     0.717900000000     0          
H650     H      0.147800000000     0.371400000000     0.697300000000     0          
C651     C      0.107700000000     0.400800000000     0.720200000000     0          
H652     H      0.100900000000     0.412300000000     0.699300000000     0          
O653     O      0.173300000000     0.315500000000     0.775500000000     0          
C654     C      0.028090000000     0.426260000000     0.748000000000     0          
C655     C      0.017120000000     0.390690000000     0.749500000000     0          
H656     H      0.031800000000     0.370800000000     0.750300000000     0          
C657     C      0.365000000000     0.876100000000     0.782100000000     0          
H658     H      0.352200000000     0.871400000000     0.802700000000     0          
C659     C      0.392300000000     0.900800000000     0.779800000000     0          
H660     H      0.399100000000     0.912300000000     0.800700000000     0          
O661     O      0.326700000000     0.815500000000     0.724500000000     0          
C662     C      0.471910000000     0.926260000000     0.752000000000     0          
C663     C      0.482880000000     0.890690000000     0.750500000000     0          
H664     H      0.468200000000     0.870800000000     0.749700000000     0          
C665     C      0.865000000000     0.376100000000     0.282100000000     0          
H666     H      0.852200000000     0.371400000000     0.302700000000     0          
C667     C      0.892300000000     0.400800000000     0.279800000000     0          
H668     H      0.899100000000     0.412300000000     0.300700000000     0          
O669     O      0.826700000000     0.315500000000     0.224500000000     0          
C670     C      0.971910000000     0.426260000000     0.252000000000     0          
C671     C      0.982880000000     0.390690000000     0.250500000000     0          
H672     H      0.968200000000     0.370800000000     0.249700000000     0          
C673     C      0.365000000000     0.123900000000     0.217900000000     0          
H674     H      0.352200000000     0.128600000000     0.197300000000     0          
C675     C      0.392300000000     0.099200000000     0.220200000000     0          
H676     H      0.399100000000     0.087700000000     0.199300000000     0          
O677     O      0.326700000000     0.184500000000     0.275500000000     0          
C678     C      0.471910000000     0.073740000000     0.248000000000     0          
C679     C      0.482880000000     0.109310000000     0.249500000000     0          
H680     H      0.468200000000     0.129200000000     0.250300000000     0          
C681     C      0.865000000000     0.623900000000     0.717900000000     0          
H682     H      0.852200000000     0.628600000000     0.697300000000     0          
C683     C      0.892300000000     0.599200000000     0.720200000000     0          
H684     H      0.899100000000     0.587700000000     0.699300000000     0          
O685     O      0.826700000000     0.684500000000     0.775500000000     0          
C686     C      0.971910000000     0.573740000000     0.748000000000     0          
C687     C      0.982880000000     0.609310000000     0.749500000000     0          
H688     H      0.968200000000     0.629200000000     0.750300000000     0          
C689     C      0.635000000000     0.123900000000     0.782100000000     0          
H690     H      0.647800000000     0.128600000000     0.802700000000     0          
C691     C      0.607700000000     0.099200000000     0.779800000000     0          
H692     H      0.600900000000     0.087700000000     0.800700000000     0          
O693     O      0.673300000000     0.184500000000     0.724500000000     0          
C694     C      0.528090000000     0.073740000000     0.752000000000     0          
C695     C      0.517120000000     0.109310000000     0.750500000000     0          
H696     H      0.531800000000     0.129200000000     0.749700000000     0          
C697     C      0.135000000000     0.623900000000     0.282100000000     0          
H698     H      0.147800000000     0.628600000000     0.302700000000     0          
C699     C      0.107700000000     0.599200000000     0.279800000000     0          
H700     H      0.100900000000     0.587700000000     0.300700000000     0          
O701     O      0.173300000000     0.684500000000     0.224500000000     0          
C702     C      0.028090000000     0.573740000000     0.252000000000     0          
C703     C      0.017120000000     0.609310000000     0.250500000000     0          
H704     H      0.031800000000     0.629200000000     0.249700000000     0          
C705     C      0.876100000000     0.782100000000     0.365000000000     0          
H706     H      0.871400000000     0.802700000000     0.352200000000     0          
C707     C      0.900800000000     0.779800000000     0.392300000000     0          
H708     H      0.912300000000     0.800700000000     0.399100000000     0          
O709     O      0.815500000000     0.724500000000     0.326700000000     0          
C710     C      0.926260000000     0.752000000000     0.471910000000     0          
C711     C      0.890690000000     0.750500000000     0.482880000000     0          
H712     H      0.870800000000     0.749700000000     0.468200000000     0          
C713     C      0.376100000000     0.282100000000     0.865000000000     0          
H714     H      0.371400000000     0.302700000000     0.852200000000     0          
C715     C      0.400800000000     0.279800000000     0.892300000000     0          
H716     H      0.412300000000     0.300700000000     0.899100000000     0          
O717     O      0.315500000000     0.224500000000     0.826700000000     0          
C718     C      0.426260000000     0.252000000000     0.971910000000     0          
C719     C      0.390690000000     0.250500000000     0.982880000000     0          
H720     H      0.370800000000     0.249700000000     0.968200000000     0          
C721     C      0.876100000000     0.217900000000     0.635000000000     0          
H722     H      0.871400000000     0.197300000000     0.647800000000     0          
C723     C      0.900800000000     0.220200000000     0.607700000000     0          
H724     H      0.912300000000     0.199300000000     0.600900000000     0          
O725     O      0.815500000000     0.275500000000     0.673300000000     0          
C726     C      0.926260000000     0.248000000000     0.528090000000     0          
C727     C      0.890690000000     0.249500000000     0.517120000000     0          
H728     H      0.870800000000     0.250300000000     0.531800000000     0          
C729     C      0.376100000000     0.717900000000     0.135000000000     0          
H730     H      0.371400000000     0.697300000000     0.147800000000     0          
C731     C      0.400800000000     0.720200000000     0.107700000000     0          
H732     H      0.412300000000     0.699300000000     0.100900000000     0          
O733     O      0.315500000000     0.775500000000     0.173300000000     0          
C734     C      0.426260000000     0.748000000000     0.028090000000     0          
C735     C      0.390690000000     0.749500000000     0.017120000000     0          
H736     H      0.370800000000     0.750300000000     0.031800000000     0          
C737     C      0.123900000000     0.782100000000     0.635000000000     0          
H738     H      0.128600000000     0.802700000000     0.647800000000     0          
C739     C      0.099200000000     0.779800000000     0.607700000000     0          
H740     H      0.087700000000     0.800700000000     0.600900000000     0          
O741     O      0.184500000000     0.724500000000     0.673300000000     0          
C742     C      0.073740000000     0.752000000000     0.528090000000     0          
C743     C      0.109310000000     0.750500000000     0.517120000000     0          
H744     H      0.129200000000     0.749700000000     0.531800000000     0          
C745     C      0.623900000000     0.282100000000     0.135000000000     0          
H746     H      0.628600000000     0.302700000000     0.147800000000     0          
C747     C      0.599200000000     0.279800000000     0.107700000000     0          
H748     H      0.587700000000     0.300700000000     0.100900000000     0          
O749     O      0.684500000000     0.224500000000     0.173300000000     0          
C750     C      0.573740000000     0.252000000000     0.028090000000     0          
C751     C      0.609310000000     0.250500000000     0.017120000000     0          
H752     H      0.629200000000     0.249700000000     0.031800000000     0          
C753     C      0.123900000000     0.217900000000     0.365000000000     0          
H754     H      0.128600000000     0.197300000000     0.352200000000     0          
C755     C      0.099200000000     0.220200000000     0.392300000000     0          
H756     H      0.087700000000     0.199300000000     0.399100000000     0          
O757     O      0.184500000000     0.275500000000     0.326700000000     0          
C758     C      0.073740000000     0.248000000000     0.471910000000     0          
C759     C      0.109310000000     0.249500000000     0.482880000000     0          
H760     H      0.129200000000     0.250300000000     0.468200000000     0          
C761     C      0.623900000000     0.717900000000     0.865000000000     0          
H762     H      0.628600000000     0.697300000000     0.852200000000     0          
C763     C      0.599200000000     0.720200000000     0.892300000000     0          
H764     H      0.587700000000     0.699300000000     0.899100000000     0          
O765     O      0.684500000000     0.775500000000     0.826700000000     0          
C766     C      0.573740000000     0.748000000000     0.971910000000     0          
C767     C      0.609310000000     0.749500000000     0.982880000000     0          
H768     H      0.629200000000     0.750300000000     0.968200000000     0          
C769     C      0.409370000000     0.250000000000     0.090630000000     0          
C770     C      0.436250000000     0.250000000000     0.063750000000     0          
C771     C      0.359230000000     0.250000000000     0.140770000000     0          
C772     C      0.331800000000     0.250000000000     0.168200000000     0          
C773     C      0.590630000000     0.750000000000     0.090630000000     0          
C774     C      0.563750000000     0.750000000000     0.063750000000     0          
C775     C      0.640770000000     0.750000000000     0.140770000000     0          
C776     C      0.668200000000     0.750000000000     0.168200000000     0          
C777     C      0.590630000000     0.250000000000     0.909370000000     0          
C778     C      0.563750000000     0.250000000000     0.936250000000     0          
C779     C      0.640770000000     0.250000000000     0.859230000000     0          
C780     C      0.668200000000     0.250000000000     0.831800000000     0          
C781     C      0.409370000000     0.750000000000     0.909370000000     0          
C782     C      0.436250000000     0.750000000000     0.936250000000     0          
C783     C      0.359230000000     0.750000000000     0.859230000000     0          
C784     C      0.331800000000     0.750000000000     0.831800000000     0          
C785     C      0.090630000000     0.409370000000     0.250000000000     0          
C786     C      0.063750000000     0.436250000000     0.250000000000     0          
C787     C      0.140770000000     0.359230000000     0.250000000000     0          
C788     C      0.168200000000     0.331800000000     0.250000000000     0          
C789     C      0.090630000000     0.590630000000     0.750000000000     0          
C790     C      0.063750000000     0.563750000000     0.750000000000     0          
C791     C      0.140770000000     0.640770000000     0.750000000000     0          
C792     C      0.168200000000     0.668200000000     0.750000000000     0          
C793     C      0.909370000000     0.590630000000     0.250000000000     0          
C794     C      0.936250000000     0.563750000000     0.250000000000     0          
C795     C      0.859230000000     0.640770000000     0.250000000000     0          
C796     C      0.831800000000     0.668200000000     0.250000000000     0          
C797     C      0.909370000000     0.409370000000     0.750000000000     0          
C798     C      0.936250000000     0.436250000000     0.750000000000     0          
C799     C      0.859230000000     0.359230000000     0.750000000000     0          
C800     C      0.831800000000     0.331800000000     0.750000000000     0          
C801     C      0.250000000000     0.090630000000     0.409370000000     0          
C802     C      0.250000000000     0.063750000000     0.436250000000     0          
C803     C      0.250000000000     0.140770000000     0.359230000000     0          
C804     C      0.250000000000     0.168200000000     0.331800000000     0          
C805     C      0.750000000000     0.090630000000     0.590630000000     0          
C806     C      0.750000000000     0.063750000000     0.563750000000     0          
C807     C      0.750000000000     0.140770000000     0.640770000000     0          
C808     C      0.750000000000     0.168200000000     0.668200000000     0          
C809     C      0.250000000000     0.909370000000     0.590630000000     0          
C810     C      0.250000000000     0.936250000000     0.563750000000     0          
C811     C      0.250000000000     0.859230000000     0.640770000000     0          
C812     C      0.250000000000     0.831800000000     0.668200000000     0          
C813     C      0.750000000000     0.909370000000     0.409370000000     0          
C814     C      0.750000000000     0.936250000000     0.436250000000     0          
C815     C      0.750000000000     0.859230000000     0.359230000000     0          
C816     C      0.750000000000     0.831800000000     0.331800000000     0          
C817     C      0.250000000000     0.409370000000     0.909370000000     0          
C818     C      0.250000000000     0.436250000000     0.936250000000     0          
C819     C      0.250000000000     0.359230000000     0.859230000000     0          
C820     C      0.250000000000     0.331800000000     0.831800000000     0          
C821     C      0.750000000000     0.590630000000     0.909370000000     0          
C822     C      0.750000000000     0.563750000000     0.936250000000     0          
C823     C      0.750000000000     0.640770000000     0.859230000000     0          
C824     C      0.750000000000     0.668200000000     0.831800000000     0          
C825     C      0.250000000000     0.590630000000     0.090630000000     0          
C826     C      0.250000000000     0.563750000000     0.063750000000     0          
C827     C      0.250000000000     0.640770000000     0.140770000000     0          
C828     C      0.250000000000     0.668200000000     0.168200000000     0          
C829     C      0.750000000000     0.409370000000     0.090630000000     0          
C830     C      0.750000000000     0.436250000000     0.063750000000     0          
C831     C      0.750000000000     0.359230000000     0.140770000000     0          
C832     C      0.750000000000     0.331800000000     0.168200000000     0          
C833     C      0.409370000000     0.090630000000     0.750000000000     0          
C834     C      0.436250000000     0.063750000000     0.750000000000     0          
C835     C      0.359230000000     0.140770000000     0.750000000000     0          
C836     C      0.331800000000     0.168200000000     0.750000000000     0          
C837     C      0.590630000000     0.090630000000     0.250000000000     0          
C838     C      0.563750000000     0.063750000000     0.250000000000     0          
C839     C      0.640770000000     0.140770000000     0.250000000000     0          
C840     C      0.668200000000     0.168200000000     0.250000000000     0          
C841     C      0.590630000000     0.909370000000     0.750000000000     0          
C842     C      0.563750000000     0.936250000000     0.750000000000     0          
C843     C      0.640770000000     0.859230000000     0.750000000000     0          
C844     C      0.668200000000     0.831800000000     0.750000000000     0          
C845     C      0.409370000000     0.909370000000     0.250000000000     0          
C846     C      0.436250000000     0.936250000000     0.250000000000     0          
C847     C      0.359230000000     0.859230000000     0.250000000000     0          
C848     C      0.331800000000     0.831800000000     0.250000000000     0          
C849     C      0.090630000000     0.250000000000     0.590630000000     0          
C850     C      0.063750000000     0.250000000000     0.563750000000     0          
C851     C      0.140770000000     0.250000000000     0.640770000000     0          
C852     C      0.168200000000     0.250000000000     0.668200000000     0          
C853     C      0.090630000000     0.750000000000     0.409370000000     0          
C854     C      0.063750000000     0.750000000000     0.436250000000     0          
C855     C      0.140770000000     0.750000000000     0.359230000000     0          
C856     C      0.168200000000     0.750000000000     0.331800000000     0          
C857     C      0.909370000000     0.250000000000     0.409370000000     0          
C858     C      0.936250000000     0.250000000000     0.436250000000     0          
C859     C      0.859230000000     0.250000000000     0.359230000000     0          
C860     C      0.831800000000     0.250000000000     0.331800000000     0          
C861     C      0.909370000000     0.750000000000     0.590630000000     0          
C862     C      0.936250000000     0.750000000000     0.563750000000     0          
C863     C      0.859230000000     0.750000000000     0.640770000000     0          
C864     C      0.831800000000     0.750000000000     0.668200000000     0          
C865     C      0.590630000000     0.750000000000     0.909370000000     0          
C866     C      0.563750000000     0.750000000000     0.936250000000     0          
C867     C      0.640770000000     0.750000000000     0.859230000000     0          
C868     C      0.668200000000     0.750000000000     0.831800000000     0          
C869     C      0.090630000000     0.250000000000     0.409370000000     0          
C870     C      0.063750000000     0.250000000000     0.436250000000     0          
C871     C      0.140770000000     0.250000000000     0.359230000000     0          
C872     C      0.168200000000     0.250000000000     0.331800000000     0          
C873     C      0.409370000000     0.250000000000     0.909370000000     0          
C874     C      0.436250000000     0.250000000000     0.936250000000     0          
C875     C      0.359230000000     0.250000000000     0.859230000000     0          
C876     C      0.331800000000     0.250000000000     0.831800000000     0          
C877     C      0.409370000000     0.750000000000     0.090630000000     0          
C878     C      0.436250000000     0.750000000000     0.063750000000     0          
C879     C      0.359230000000     0.750000000000     0.140770000000     0          
C880     C      0.331800000000     0.750000000000     0.168200000000     0          
C881     C      0.590630000000     0.250000000000     0.090630000000     0          
C882     C      0.563750000000     0.250000000000     0.063750000000     0          
C883     C      0.640770000000     0.250000000000     0.140770000000     0          
C884     C      0.668200000000     0.250000000000     0.168200000000     0          
C885     C      0.909370000000     0.590630000000     0.750000000000     0          
C886     C      0.936250000000     0.563750000000     0.750000000000     0          
C887     C      0.859230000000     0.640770000000     0.750000000000     0          
C888     C      0.831800000000     0.668200000000     0.750000000000     0          
C889     C      0.409370000000     0.090630000000     0.250000000000     0          
C890     C      0.436250000000     0.063750000000     0.250000000000     0          
C891     C      0.359230000000     0.140770000000     0.250000000000     0          
C892     C      0.331800000000     0.168200000000     0.250000000000     0          
C893     C      0.909370000000     0.409370000000     0.250000000000     0          
C894     C      0.936250000000     0.436250000000     0.250000000000     0          
C895     C      0.859230000000     0.359230000000     0.250000000000     0          
C896     C      0.831800000000     0.331800000000     0.250000000000     0          
C897     C      0.090630000000     0.409370000000     0.750000000000     0          
C898     C      0.063750000000     0.436250000000     0.750000000000     0          
C899     C      0.140770000000     0.359230000000     0.750000000000     0          
C900     C      0.168200000000     0.331800000000     0.750000000000     0          
C901     C      0.090630000000     0.590630000000     0.250000000000     0          
C902     C      0.063750000000     0.563750000000     0.250000000000     0          
C903     C      0.140770000000     0.640770000000     0.250000000000     0          
C904     C      0.168200000000     0.668200000000     0.250000000000     0          
C905     C      0.750000000000     0.909370000000     0.590630000000     0          
C906     C      0.750000000000     0.936250000000     0.563750000000     0          
C907     C      0.750000000000     0.859230000000     0.640770000000     0          
C908     C      0.750000000000     0.831800000000     0.668200000000     0          
C909     C      0.250000000000     0.409370000000     0.090630000000     0          
C910     C      0.250000000000     0.436250000000     0.063750000000     0          
C911     C      0.250000000000     0.359230000000     0.140770000000     0          
C912     C      0.250000000000     0.331800000000     0.168200000000     0          
C913     C      0.250000000000     0.909370000000     0.409370000000     0          
C914     C      0.250000000000     0.936250000000     0.436250000000     0          
C915     C      0.250000000000     0.859230000000     0.359230000000     0          
C916     C      0.250000000000     0.831800000000     0.331800000000     0          
C917     C      0.750000000000     0.090630000000     0.409370000000     0          
C918     C      0.750000000000     0.063750000000     0.436250000000     0          
C919     C      0.750000000000     0.140770000000     0.359230000000     0          
C920     C      0.750000000000     0.168200000000     0.331800000000     0          
C921     C      0.250000000000     0.090630000000     0.590630000000     0          
C922     C      0.250000000000     0.063750000000     0.563750000000     0          
C923     C      0.250000000000     0.140770000000     0.640770000000     0          
C924     C      0.250000000000     0.168200000000     0.668200000000     0          
C925     C      0.750000000000     0.590630000000     0.090630000000     0          
C926     C      0.750000000000     0.563750000000     0.063750000000     0          
C927     C      0.750000000000     0.640770000000     0.140770000000     0          
C928     C      0.750000000000     0.668200000000     0.168200000000     0          
C929     C      0.750000000000     0.409370000000     0.909370000000     0          
C930     C      0.750000000000     0.436250000000     0.936250000000     0          
C931     C      0.750000000000     0.359230000000     0.859230000000     0          
C932     C      0.750000000000     0.331800000000     0.831800000000     0          
C933     C      0.250000000000     0.590630000000     0.909370000000     0          
C934     C      0.250000000000     0.563750000000     0.936250000000     0          
C935     C      0.250000000000     0.640770000000     0.859230000000     0          
C936     C      0.250000000000     0.668200000000     0.831800000000     0          
C937     C      0.590630000000     0.909370000000     0.250000000000     0          
C938     C      0.563750000000     0.936250000000     0.250000000000     0          
C939     C      0.640770000000     0.859230000000     0.250000000000     0          
C940     C      0.668200000000     0.831800000000     0.250000000000     0          
C941     C      0.409370000000     0.909370000000     0.750000000000     0          
C942     C      0.436250000000     0.936250000000     0.750000000000     0          
C943     C      0.359230000000     0.859230000000     0.750000000000     0          
C944     C      0.331800000000     0.831800000000     0.750000000000     0          
C945     C      0.590630000000     0.090630000000     0.750000000000     0          
C946     C      0.563750000000     0.063750000000     0.750000000000     0          
C947     C      0.640770000000     0.140770000000     0.750000000000     0          
C948     C      0.668200000000     0.168200000000     0.750000000000     0          
C949     C      0.909370000000     0.750000000000     0.409370000000     0          
C950     C      0.936250000000     0.750000000000     0.436250000000     0          
C951     C      0.859230000000     0.750000000000     0.359230000000     0          
C952     C      0.831800000000     0.750000000000     0.331800000000     0          
C953     C      0.909370000000     0.250000000000     0.590630000000     0          
C954     C      0.936250000000     0.250000000000     0.563750000000     0          
C955     C      0.859230000000     0.250000000000     0.640770000000     0          
C956     C      0.831800000000     0.250000000000     0.668200000000     0          
C957     C      0.090630000000     0.750000000000     0.590630000000     0          
C958     C      0.063750000000     0.750000000000     0.563750000000     0          
C959     C      0.140770000000     0.750000000000     0.640770000000     0          
C960     C      0.168200000000     0.750000000000     0.668200000000     0          
Mn961    Mn     0.500000000000     0.729200000000     0.000000000000     0          
Mn962    Mn     0.000000000000     0.229200000000     0.500000000000     0          
Mn963    Mn     0.500000000000     0.000000000000     0.770800000000     0          
Mn964    Mn     0.270800000000     0.000000000000     0.500000000000     0          
Mn965    Mn     0.229200000000     0.500000000000     0.000000000000     0          
Mn966    Mn     0.770800000000     0.000000000000     0.500000000000     0          
Mn967    Mn     0.729200000000     0.500000000000     0.000000000000     0          
Mn968    Mn     0.000000000000     0.500000000000     0.229200000000     0          
Mn969    Mn     0.500000000000     0.000000000000     0.270800000000     0          
Mn970    Mn     0.000000000000     0.500000000000     0.770800000000     0          
Mn971    Mn     0.000000000000     0.729200000000     0.500000000000     0          
Mn972    Mn     0.500000000000     0.229200000000     0.000000000000     0          
N973     N      0.500000000000     0.251700000000     0.052400000000     0          
N974     N      0.000000000000     0.751700000000     0.552400000000     0          
O975     O      0.500000000000     0.689400000000     0.019100000000     0          
N976     N      0.500000000000     0.748300000000     0.052400000000     0          
N977     N      0.000000000000     0.248300000000     0.552400000000     0          
N978     N      0.500000000000     0.251700000000     0.947600000000     0          
N979     N      0.000000000000     0.751700000000     0.447600000000     0          
O980     O      0.500000000000     0.689400000000     0.980900000000     0          
N981     N      0.500000000000     0.748300000000     0.947600000000     0          
N982     N      0.000000000000     0.248300000000     0.447600000000     0          
N983     N      0.052400000000     0.500000000000     0.251700000000     0          
N984     N      0.552400000000     0.000000000000     0.751700000000     0          
N985     N      0.052400000000     0.500000000000     0.748300000000     0          
N986     N      0.552400000000     0.000000000000     0.248300000000     0          
N987     N      0.947600000000     0.500000000000     0.251700000000     0          
N988     N      0.447600000000     0.000000000000     0.751700000000     0          
N989     N      0.947600000000     0.500000000000     0.748300000000     0          
N990     N      0.447600000000     0.000000000000     0.248300000000     0          
O991     O      0.310600000000     0.019100000000     0.500000000000     0          
N992     N      0.251700000000     0.052400000000     0.500000000000     0          
N993     N      0.751700000000     0.552400000000     0.000000000000     0          
N994     N      0.748300000000     0.052400000000     0.500000000000     0          
N995     N      0.248300000000     0.552400000000     0.000000000000     0          
O996     O      0.310600000000     0.980900000000     0.500000000000     0          
N997     N      0.251700000000     0.947600000000     0.500000000000     0          
N998     N      0.751700000000     0.447600000000     0.000000000000     0          
N999     N      0.748300000000     0.947600000000     0.500000000000     0          
N1000    N      0.248300000000     0.447600000000     0.000000000000     0          
N1001    N      0.251700000000     0.500000000000     0.947600000000     0          
N1002    N      0.751700000000     0.000000000000     0.447600000000     0          
O1003    O      0.689400000000     0.500000000000     0.980900000000     0          
N1004    N      0.748300000000     0.500000000000     0.947600000000     0          
N1005    N      0.248300000000     0.000000000000     0.447600000000     0          
N1006    N      0.251700000000     0.500000000000     0.052400000000     0          
N1007    N      0.751700000000     0.000000000000     0.552400000000     0          
O1008    O      0.689400000000     0.500000000000     0.019100000000     0          
N1009    N      0.748300000000     0.500000000000     0.052400000000     0          
N1010    N      0.248300000000     0.000000000000     0.552400000000     0          
N1011    N      0.500000000000     0.052400000000     0.748300000000     0          
N1012    N      0.000000000000     0.552400000000     0.248300000000     0          
O1013    O      0.500000000000     0.019100000000     0.310600000000     0          
N1014    N      0.500000000000     0.052400000000     0.251700000000     0          
N1015    N      0.000000000000     0.552400000000     0.751700000000     0          
N1016    N      0.500000000000     0.947600000000     0.748300000000     0          
N1017    N      0.000000000000     0.447600000000     0.248300000000     0          
O1018    O      0.500000000000     0.980900000000     0.310600000000     0          
N1019    N      0.500000000000     0.947600000000     0.251700000000     0          
N1020    N      0.000000000000     0.447600000000     0.751700000000     0          
N1021    N      0.052400000000     0.251700000000     0.500000000000     0          
N1022    N      0.552400000000     0.751700000000     0.000000000000     0          
O1023    O      0.019100000000     0.689400000000     0.500000000000     0          
N1024    N      0.052400000000     0.748300000000     0.500000000000     0          
N1025    N      0.552400000000     0.248300000000     0.000000000000     0          
N1026    N      0.947600000000     0.251700000000     0.500000000000     0          
N1027    N      0.447600000000     0.751700000000     0.000000000000     0          
O1028    O      0.980900000000     0.689400000000     0.500000000000     0          
N1029    N      0.947600000000     0.748300000000     0.500000000000     0          
N1030    N      0.447600000000     0.248300000000     0.000000000000     0          
O1031    O      0.980900000000     0.189100000000     0.500000000000     0          
O1032    O      0.019100000000     0.189100000000     0.500000000000     0          
O1033    O      0.500000000000     0.019100000000     0.810900000000     0          
O1034    O      0.500000000000     0.980900000000     0.810900000000     0          
O1035    O      0.189100000000     0.500000000000     0.980900000000     0          
O1036    O      0.189100000000     0.500000000000     0.019100000000     0          
O1037    O      0.810900000000     0.019100000000     0.500000000000     0          
O1038    O      0.810900000000     0.980900000000     0.500000000000     0          
O1039    O      0.019100000000     0.500000000000     0.189100000000     0          
O1040    O      0.980900000000     0.500000000000     0.810900000000     0          
O1041    O      0.980900000000     0.500000000000     0.189100000000     0          
O1042    O      0.019100000000     0.500000000000     0.810900000000     0          
O1043    O      0.500000000000     0.189100000000     0.019100000000     0          
O1044    O      0.500000000000     0.189100000000     0.980900000000     0          
Zr1045   Zr     0.284530000000     0.284530000000     0.219890000000     0          
O1046    O      0.250650000000     0.250650000000     0.179900000000     0          
Zr1047   Zr     0.301550000000     0.301550000000     0.236880000000     0          
Zr1048   Zr     0.784530000000     0.784530000000     0.719890000000     0          
O1049    O      0.750650000000     0.750650000000     0.679900000000     0          
Zr1050   Zr     0.801550000000     0.801550000000     0.736880000000     0          
Zr1051   Zr     0.715470000000     0.715470000000     0.219890000000     0          
O1052    O      0.749350000000     0.749350000000     0.179900000000     0          
Zr1053   Zr     0.698450000000     0.698450000000     0.236880000000     0          
Zr1054   Zr     0.215470000000     0.215470000000     0.719890000000     0          
O1055    O      0.249350000000     0.249350000000     0.679900000000     0          
Zr1056   Zr     0.198450000000     0.198450000000     0.736880000000     0          
Zr1057   Zr     0.715470000000     0.284530000000     0.780110000000     0          
O1058    O      0.749350000000     0.250650000000     0.820100000000     0          
Zr1059   Zr     0.698450000000     0.301550000000     0.763120000000     0          
Zr1060   Zr     0.215470000000     0.784530000000     0.280110000000     0          
O1061    O      0.249350000000     0.750650000000     0.320100000000     0          
Zr1062   Zr     0.198450000000     0.801550000000     0.263120000000     0          
Zr1063   Zr     0.284530000000     0.715470000000     0.780110000000     0          
O1064    O      0.250650000000     0.749350000000     0.820100000000     0          
Zr1065   Zr     0.301550000000     0.698450000000     0.763120000000     0          
Zr1066   Zr     0.784530000000     0.215470000000     0.280110000000     0          
O1067    O      0.750650000000     0.249350000000     0.320100000000     0          
Zr1068   Zr     0.801550000000     0.198450000000     0.263120000000     0          
Zr1069   Zr     0.219890000000     0.284530000000     0.284530000000     0          
O1070    O      0.179900000000     0.250650000000     0.250650000000     0          
Zr1071   Zr     0.236880000000     0.301550000000     0.301550000000     0          
Zr1072   Zr     0.719890000000     0.784530000000     0.784530000000     0          
O1073    O      0.679900000000     0.750650000000     0.750650000000     0          
Zr1074   Zr     0.736880000000     0.801550000000     0.801550000000     0          
Zr1075   Zr     0.219890000000     0.715470000000     0.715470000000     0          
O1076    O      0.179900000000     0.749350000000     0.749350000000     0          
Zr1077   Zr     0.236880000000     0.698450000000     0.698450000000     0          
Zr1078   Zr     0.719890000000     0.215470000000     0.215470000000     0          
O1079    O      0.679900000000     0.249350000000     0.249350000000     0          
Zr1080   Zr     0.736880000000     0.198450000000     0.198450000000     0          
Zr1081   Zr     0.780110000000     0.715470000000     0.284530000000     0          
O1082    O      0.820100000000     0.749350000000     0.250650000000     0          
Zr1083   Zr     0.763120000000     0.698450000000     0.301550000000     0          
Zr1084   Zr     0.280110000000     0.215470000000     0.784530000000     0          
O1085    O      0.320100000000     0.249350000000     0.750650000000     0          
Zr1086   Zr     0.263120000000     0.198450000000     0.801550000000     0          
Zr1087   Zr     0.780110000000     0.284530000000     0.715470000000     0          
O1088    O      0.820100000000     0.250650000000     0.749350000000     0          
Zr1089   Zr     0.763120000000     0.301550000000     0.698450000000     0          
Zr1090   Zr     0.280110000000     0.784530000000     0.215470000000     0          
O1091    O      0.320100000000     0.750650000000     0.249350000000     0          
Zr1092   Zr     0.263120000000     0.801550000000     0.198450000000     0          
Zr1093   Zr     0.284530000000     0.219890000000     0.284530000000     0          
O1094    O      0.250650000000     0.179900000000     0.250650000000     0          
Zr1095   Zr     0.301550000000     0.236880000000     0.301550000000     0          
Zr1096   Zr     0.784530000000     0.719890000000     0.784530000000     0          
O1097    O      0.750650000000     0.679900000000     0.750650000000     0          
Zr1098   Zr     0.801550000000     0.736880000000     0.801550000000     0          
Zr1099   Zr     0.715470000000     0.219890000000     0.715470000000     0          
O1100    O      0.749350000000     0.179900000000     0.749350000000     0          
Zr1101   Zr     0.698450000000     0.236880000000     0.698450000000     0          
Zr1102   Zr     0.215470000000     0.719890000000     0.215470000000     0          
O1103    O      0.249350000000     0.679900000000     0.249350000000     0          
Zr1104   Zr     0.198450000000     0.736880000000     0.198450000000     0          
Zr1105   Zr     0.284530000000     0.780110000000     0.715470000000     0          
O1106    O      0.250650000000     0.820100000000     0.749350000000     0          
Zr1107   Zr     0.301550000000     0.763120000000     0.698450000000     0          
Zr1108   Zr     0.784530000000     0.280110000000     0.215470000000     0          
O1109    O      0.750650000000     0.320100000000     0.249350000000     0          
Zr1110   Zr     0.801550000000     0.263120000000     0.198450000000     0          
Zr1111   Zr     0.715470000000     0.780110000000     0.284530000000     0          
O1112    O      0.749350000000     0.820100000000     0.250650000000     0          
Zr1113   Zr     0.698450000000     0.763120000000     0.301550000000     0          
Zr1114   Zr     0.215470000000     0.280110000000     0.784530000000     0          
O1115    O      0.249350000000     0.320100000000     0.750650000000     0          
Zr1116   Zr     0.198450000000     0.263120000000     0.801550000000     0          
Zr1117   Zr     0.284530000000     0.284530000000     0.780110000000     0          
O1118    O      0.250650000000     0.250650000000     0.820100000000     0          
Zr1119   Zr     0.301550000000     0.301550000000     0.763120000000     0          
Zr1120   Zr     0.784530000000     0.784530000000     0.280110000000     0          
O1121    O      0.750650000000     0.750650000000     0.320100000000     0          
Zr1122   Zr     0.801550000000     0.801550000000     0.263120000000     0          
Zr1123   Zr     0.715470000000     0.715470000000     0.780110000000     0          
O1124    O      0.749350000000     0.749350000000     0.820100000000     0          
Zr1125   Zr     0.698450000000     0.698450000000     0.763120000000     0          
Zr1126   Zr     0.215470000000     0.215470000000     0.280110000000     0          
O1127    O      0.249350000000     0.249350000000     0.320100000000     0          
Zr1128   Zr     0.198450000000     0.198450000000     0.263120000000     0          
Zr1129   Zr     0.284530000000     0.715470000000     0.219890000000     0          
O1130    O      0.250650000000     0.749350000000     0.179900000000     0          
Zr1131   Zr     0.301550000000     0.698450000000     0.236880000000     0          
Zr1132   Zr     0.784530000000     0.215470000000     0.719890000000     0          
O1133    O      0.750650000000     0.249350000000     0.679900000000     0          
Zr1134   Zr     0.801550000000     0.198450000000     0.736880000000     0          
Zr1135   Zr     0.715470000000     0.284530000000     0.219890000000     0          
O1136    O      0.749350000000     0.250650000000     0.179900000000     0          
Zr1137   Zr     0.698450000000     0.301550000000     0.236880000000     0          
Zr1138   Zr     0.215470000000     0.784530000000     0.719890000000     0          
O1139    O      0.249350000000     0.750650000000     0.679900000000     0          
Zr1140   Zr     0.198450000000     0.801550000000     0.736880000000     0          
Zr1141   Zr     0.284530000000     0.219890000000     0.715470000000     0          
O1142    O      0.250650000000     0.179900000000     0.749350000000     0          
Zr1143   Zr     0.301550000000     0.236880000000     0.698450000000     0          
Zr1144   Zr     0.784530000000     0.719890000000     0.215470000000     0          
O1145    O      0.750650000000     0.679900000000     0.249350000000     0          
Zr1146   Zr     0.801550000000     0.736880000000     0.198450000000     0          
Zr1147   Zr     0.715470000000     0.219890000000     0.284530000000     0          
O1148    O      0.749350000000     0.179900000000     0.250650000000     0          
Zr1149   Zr     0.698450000000     0.236880000000     0.301550000000     0          
Zr1150   Zr     0.215470000000     0.719890000000     0.784530000000     0          
O1151    O      0.249350000000     0.679900000000     0.750650000000     0          
Zr1152   Zr     0.198450000000     0.736880000000     0.801550000000     0          
Zr1153   Zr     0.715470000000     0.780110000000     0.715470000000     0          
O1154    O      0.749350000000     0.820100000000     0.749350000000     0          
Zr1155   Zr     0.698450000000     0.763120000000     0.698450000000     0          
Zr1156   Zr     0.215470000000     0.280110000000     0.215470000000     0          
O1157    O      0.249350000000     0.320100000000     0.249350000000     0          
Zr1158   Zr     0.198450000000     0.263120000000     0.198450000000     0          
Zr1159   Zr     0.284530000000     0.780110000000     0.284530000000     0          
O1160    O      0.250650000000     0.820100000000     0.250650000000     0          
Zr1161   Zr     0.301550000000     0.763120000000     0.301550000000     0          
Zr1162   Zr     0.784530000000     0.280110000000     0.784530000000     0          
O1163    O      0.750650000000     0.320100000000     0.750650000000     0          
Zr1164   Zr     0.801550000000     0.263120000000     0.801550000000     0          
Zr1165   Zr     0.219890000000     0.284530000000     0.715470000000     0          
O1166    O      0.179900000000     0.250650000000     0.749350000000     0          
Zr1167   Zr     0.236880000000     0.301550000000     0.698450000000     0          
Zr1168   Zr     0.719890000000     0.784530000000     0.215470000000     0          
O1169    O      0.679900000000     0.750650000000     0.249350000000     0          
Zr1170   Zr     0.736880000000     0.801550000000     0.198450000000     0          
Zr1171   Zr     0.219890000000     0.715470000000     0.284530000000     0          
O1172    O      0.179900000000     0.749350000000     0.250650000000     0          
Zr1173   Zr     0.236880000000     0.698450000000     0.301550000000     0          
Zr1174   Zr     0.719890000000     0.215470000000     0.784530000000     0          
O1175    O      0.679900000000     0.249350000000     0.750650000000     0          
Zr1176   Zr     0.736880000000     0.198450000000     0.801550000000     0          
Zr1177   Zr     0.780110000000     0.284530000000     0.284530000000     0          
O1178    O      0.820100000000     0.250650000000     0.250650000000     0          
Zr1179   Zr     0.763120000000     0.301550000000     0.301550000000     0          
Zr1180   Zr     0.280110000000     0.784530000000     0.784530000000     0          
O1181    O      0.320100000000     0.750650000000     0.750650000000     0          
Zr1182   Zr     0.263120000000     0.801550000000     0.801550000000     0          
Zr1183   Zr     0.780110000000     0.715470000000     0.715470000000     0          
O1184    O      0.820100000000     0.749350000000     0.749350000000     0          
Zr1185   Zr     0.763120000000     0.698450000000     0.698450000000     0          
Zr1186   Zr     0.280110000000     0.215470000000     0.215470000000     0          
O1187    O      0.320100000000     0.249350000000     0.249350000000     0          
Zr1188   Zr     0.263120000000     0.198450000000     0.198450000000     0          
O1189    O      0.283400000000     0.283400000000     0.283400000000     0          
O1190    O      0.783400000000     0.783400000000     0.783400000000     0          
O1191    O      0.716600000000     0.716600000000     0.283400000000     0          
O1192    O      0.216600000000     0.216600000000     0.783400000000     0          
O1193    O      0.716600000000     0.283400000000     0.716600000000     0          
O1194    O      0.216600000000     0.783400000000     0.216600000000     0          
O1195    O      0.283400000000     0.716600000000     0.716600000000     0          
O1196    O      0.783400000000     0.216600000000     0.216600000000     0          
O1197    O      0.283400000000     0.283400000000     0.716600000000     0          
O1198    O      0.783400000000     0.783400000000     0.216600000000     0          
O1199    O      0.716600000000     0.716600000000     0.716600000000     0          
O1200    O      0.216600000000     0.216600000000     0.216600000000     0          
O1201    O      0.283400000000     0.716600000000     0.283400000000     0          
O1202    O      0.783400000000     0.216600000000     0.783400000000     0          
O1203    O      0.716600000000     0.283400000000     0.283400000000     0          
O1204    O      0.216600000000     0.783400000000     0.783400000000     0          


