data_MOFNED

_audit_creation_method RASPA-1.0
_audit_creation_date 2020-4-3
_audit_author_name 'Rocio Bueno-Perez'

_cell_length_a    18.085
_cell_length_b    18.085
_cell_length_c    86.656
_cell_angle_alpha 90
_cell_angle_beta  90
_cell_angle_gamma 90
_cell_volume      28342.3

_symmetry_cell_setting          tetragonal
_symmetry_space_group_name_Hall 'P 1'
_symmetry_space_group_name_H-M  'P 1'
_symmetry_Int_Tables_number     1

_symmetry_equiv_pos_as_xyz 'x,y,z'

loop_
_atom_site_label
_atom_site_type_symbol
_atom_site_fract_x
_atom_site_fract_y
_atom_site_fract_z
_atom_site_charge
C1       C      0.365200000000     0.862800000000     0.276020000000     0          
Cl1      Cl     0.465620000000     0.644980000000     0.244570000000     0          
Zr2      Zr     0.382210000000     0.320150000000     0.374960000000     0          
C2       C      0.342200000000     0.980000000000     0.233670000000     0          
Cl2      Cl     0.290990000000     0.974060000000     0.291420000000     0          
Cl3      Cl     0.430750000000     0.028320000000     0.274420000000     0          
O1       O      0.418590000000     0.229970000000     0.387160000000     0          
Cl4      Cl     0.306510000000     0.656740000000     0.234770000000     0          
O2       O      0.168580000000     0.147730000000     0.147550000000     0          
O3       O      0.528630000000     0.144950000000     0.391210000000     0          
O4       O      0.510270000000     0.474020000000     0.374240000000     0          
O5       O      0.089610000000     0.188900000000     0.165620000000     0          
O6       O      0.388600000000     0.444200000000     0.373230000000     0          
O7       O      0.243000000000     0.875400000000     0.197210000000     0          
O8       O      0.463600000000     0.573000000000     0.303510000000     0          
O9       O      0.411800000000     0.300900000000     0.417190000000     0          
O10      O      0.329000000000     0.087700000000     0.218650000000     0          
O11      O      0.327100000000     0.351200000000     0.396880000000     0          
O12      O      0.363500000000     0.763600000000     0.330760000000     0          
N1       N      0.413500000000     0.670700000000     0.317100000000     0          
C3       C      0.383400000000     0.785900000000     0.275420000000     0          
C4       C      0.389800000000     0.750700000000     0.260950000000     0          
C5       C      0.325000000000     0.751500000000     0.234900000000     0          
C6       C      0.355000000000     0.787600000000     0.247710000000     0          
N2       N      0.284200000000     0.981500000000     0.208160000000     0          
C7       C      0.394000000000     0.748500000000     0.289400000000     0          
C8       C      0.332000000000     0.903900000000     0.234180000000     0          
C9       C      0.353900000000     0.864600000000     0.247890000000     0          
C10      C      0.423000000000     0.675500000000     0.288700000000     0          
C11      C      0.304000000000     0.864700000000     0.221450000000     0          
C12      C      0.369000000000     0.904600000000     0.261270000000     0          
C13      C      0.427200000000     0.682600000000     0.261010000000     0          
C14      C      0.443500000000     0.482000000000     0.369140000000     0          
C15      C      0.144300000000     0.151900000000     0.161220000000     0          
C16      C      0.433500000000     0.538900000000     0.356710000000     0          
C17      C      0.184000000000     0.107100000000     0.173520000000     0          
C18      C      0.296500000000     0.787100000000     0.222220000000     0          
H1       H      0.273000000000     0.761000000000     0.214400000000     0          
C19      C      0.254400000000     0.085100000000     0.171550000000     0          
H2       H      0.280500000000     0.098300000000     0.162700000000     0          
C20      C      0.321100000000     0.021600000000     0.219530000000     0          
C21      C      0.373200000000     0.016900000000     0.246020000000     0          
H3       H      0.384900000000     0.066700000000     0.245100000000     0          
C22      C      0.387000000000     0.980000000000     0.259830000000     0          
C23      C      0.442200000000     0.645000000000     0.274610000000     0          
H4       H      0.465300000000     0.599100000000     0.274300000000     0          
C24      C      0.382500000000     0.739900000000     0.318160000000     0          
C25      C      0.338200000000     0.891300000000     0.290210000000     0          
C26      C      0.145400000000     0.088800000000     0.186600000000     0          
H5       H      0.097000000000     0.105300000000     0.187900000000     0          
C27      C      0.374400000000     0.780200000000     0.303280000000     0          
C28      C      0.276400000000     0.905500000000     0.207760000000     0          
C29      C      0.344700000000     0.848600000000     0.303770000000     0          
H6       H      0.328300000000     0.867700000000     0.313100000000     0          
C30      C      0.178000000000     0.046300000000     0.197720000000     0          
H7       H      0.151800000000     0.031900000000     0.206400000000     0          
C31      C      0.491800000000     0.582400000000     0.352300000000     0          
H8       H      0.536000000000     0.581100000000     0.357800000000     0          
C32      C      0.288000000000     0.041400000000     0.183240000000     0          
H9       H      0.336200000000     0.024300000000     0.182100000000     0          
C33      C      0.250100000000     0.025500000000     0.195700000000     0          
C34      C      0.359900000000     0.588200000000     0.335770000000     0          
H10      H      0.315000000000     0.593100000000     0.330600000000     0          
C35      C      0.421300000000     0.627400000000     0.331120000000     0          
C36      C      0.367100000000     0.540300000000     0.348620000000     0          
H11      H      0.327900000000     0.510100000000     0.351600000000     0          
C37      C      0.484100000000     0.627900000000     0.339660000000     0          
H12      H      0.522600000000     0.659500000000     0.336900000000     0          
C38      C      0.435600000000     0.634100000000     0.303250000000     0          
C39      C      0.349200000000     0.333500000000     0.411690000000     0          
C40      C      0.294600000000     0.353800000000     0.424490000000     0          
H13      H      0.274800000000     0.309400000000     0.429000000000     0          
H14      H      0.255000000000     0.382700000000     0.420200000000     0          
H15      H      0.319600000000     0.381800000000     0.432300000000     0          
Zr1      Zr     0.500000000000     0.250000000000     0.403560000000     0          
C1       C      0.887200000000     0.615200000000     0.526020000000     0          
Cl1      Cl     0.105020000000     0.715620000000     0.494570000000     0          
Zr2      Zr     0.429850000000     0.632210000000     0.624960000000     0          
C2       C      0.770000000000     0.592200000000     0.483670000000     0          
Cl2      Cl     0.775940000000     0.540990000000     0.541420000000     0          
Cl3      Cl     0.721680000000     0.680750000000     0.524420000000     0          
O1       O      0.520030000000     0.668590000000     0.637160000000     0          
Cl4      Cl     0.093260000000     0.556510000000     0.484770000000     0          
O2       O      0.602270000000     0.418580000000     0.397550000000     0          
O3       O      0.605050000000     0.778630000000     0.641210000000     0          
O4       O      0.275980000000     0.760270000000     0.624240000000     0          
O5       O      0.561100000000     0.339610000000     0.415620000000     0          
O6       O      0.305800000000     0.638600000000     0.623230000000     0          
O7       O      0.874600000000     0.493000000000     0.447210000000     0          
O8       O      0.177000000000     0.713600000000     0.553510000000     0          
O9       O      0.449100000000     0.661800000000     0.667190000000     0          
O10      O      0.662300000000     0.579000000000     0.468650000000     0          
O11      O      0.398800000000     0.577100000000     0.646880000000     0          
O12      O      0.986400000000     0.613500000000     0.580760000000     0          
N1       N      0.079300000000     0.663500000000     0.567100000000     0          
C3       C      0.964100000000     0.633400000000     0.525420000000     0          
C4       C      0.999300000000     0.639800000000     0.510950000000     0          
C5       C      0.998500000000     0.575000000000     0.484900000000     0          
C6       C      0.962400000000     0.605000000000     0.497710000000     0          
N2       N      0.768500000000     0.534200000000     0.458160000000     0          
C7       C      0.001500000000     0.644000000000     0.539400000000     0          
C8       C      0.846100000000     0.582000000000     0.484180000000     0          
C9       C      0.885400000000     0.603900000000     0.497890000000     0          
C10      C      0.074500000000     0.673000000000     0.538700000000     0          
C11      C      0.885300000000     0.554000000000     0.471450000000     0          
C12      C      0.845400000000     0.619000000000     0.511270000000     0          
C13      C      0.067400000000     0.677200000000     0.511010000000     0          
C14      C      0.268000000000     0.693500000000     0.619140000000     0          
C15      C      0.598100000000     0.394300000000     0.411220000000     0          
C16      C      0.211100000000     0.683500000000     0.606710000000     0          
C17      C      0.642900000000     0.434000000000     0.423520000000     0          
C18      C      0.962900000000     0.546500000000     0.472220000000     0          
H1       H      0.989000000000     0.523000000000     0.464400000000     0          
C19      C      0.664900000000     0.504400000000     0.421550000000     0          
H2       H      0.651700000000     0.530500000000     0.412700000000     0          
C20      C      0.728400000000     0.571100000000     0.469530000000     0          
C21      C      0.733100000000     0.623200000000     0.496020000000     0          
H3       H      0.683300000000     0.634900000000     0.495100000000     0          
C22      C      0.770000000000     0.637000000000     0.509830000000     0          
C23      C      0.105000000000     0.692200000000     0.524610000000     0          
H4       H      0.150900000000     0.715300000000     0.524300000000     0          
C24      C      0.010100000000     0.632500000000     0.568160000000     0          
C25      C      0.858700000000     0.588200000000     0.540210000000     0          
C26      C      0.661200000000     0.395400000000     0.436600000000     0          
H5       H      0.644700000000     0.347000000000     0.437900000000     0          
C27      C      0.969800000000     0.624400000000     0.553280000000     0          
C28      C      0.844500000000     0.526400000000     0.457760000000     0          
C29      C      0.901400000000     0.594700000000     0.553770000000     0          
H6       H      0.882300000000     0.578300000000     0.563100000000     0          
C30      C      0.703700000000     0.428000000000     0.447720000000     0          
H7       H      0.718100000000     0.401800000000     0.456400000000     0          
C31      C      0.167600000000     0.741800000000     0.602300000000     0          
H8       H      0.168900000000     0.786000000000     0.607800000000     0          
C32      C      0.708600000000     0.538000000000     0.433240000000     0          
H9       H      0.725700000000     0.586200000000     0.432100000000     0          
C33      C      0.724500000000     0.500100000000     0.445700000000     0          
C34      C      0.161800000000     0.609900000000     0.585770000000     0          
H10      H      0.156900000000     0.565000000000     0.580600000000     0          
C35      C      0.122600000000     0.671300000000     0.581120000000     0          
C36      C      0.209700000000     0.617100000000     0.598620000000     0          
H11      H      0.239900000000     0.577900000000     0.601600000000     0          
C37      C      0.122100000000     0.734100000000     0.589660000000     0          
H12      H      0.090500000000     0.772600000000     0.586900000000     0          
C38      C      0.115900000000     0.685600000000     0.553250000000     0          
C39      C      0.416500000000     0.599200000000     0.661690000000     0          
C40      C      0.396200000000     0.544600000000     0.674490000000     0          
H13      H      0.440600000000     0.524800000000     0.679000000000     0          
H14      H      0.367300000000     0.505000000000     0.670200000000     0          
H15      H      0.368200000000     0.569600000000     0.682300000000     0          
Zr1      Zr     0.500000000000     0.750000000000     0.653560000000     0          
C1       C      0.134800000000     0.137200000000     0.776020000000     0          
Cl1      Cl     0.034380000000     0.355020000000     0.744570000000     0          
Zr2      Zr     0.117790000000     0.679850000000     0.874960000000     0          
C2       C      0.157800000000     0.020000000000     0.733670000000     0          
Cl2      Cl     0.209010000000     0.025940000000     0.791420000000     0          
Cl3      Cl     0.069250000000     0.971680000000     0.774420000000     0          
O1       O      0.081410000000     0.770030000000     0.887160000000     0          
Cl4      Cl     0.193490000000     0.343260000000     0.734770000000     0          
O2       O      0.331420000000     0.852270000000     0.647550000000     0          
O3       O      0.971370000000     0.855050000000     0.891210000000     0          
O4       O      0.989730000000     0.525980000000     0.874240000000     0          
O5       O      0.410390000000     0.811100000000     0.665620000000     0          
O6       O      0.111400000000     0.555800000000     0.873230000000     0          
O7       O      0.257000000000     0.124600000000     0.697210000000     0          
O8       O      0.036400000000     0.427000000000     0.803510000000     0          
O9       O      0.088200000000     0.699100000000     0.917190000000     0          
O10      O      0.171000000000     0.912300000000     0.718650000000     0          
O11      O      0.172900000000     0.648800000000     0.896880000000     0          
O12      O      0.136500000000     0.236400000000     0.830760000000     0          
N1       N      0.086500000000     0.329300000000     0.817100000000     0          
C3       C      0.116600000000     0.214100000000     0.775420000000     0          
C4       C      0.110200000000     0.249300000000     0.760950000000     0          
C5       C      0.175000000000     0.248500000000     0.734900000000     0          
C6       C      0.145000000000     0.212400000000     0.747710000000     0          
N2       N      0.215800000000     0.018500000000     0.708160000000     0          
C7       C      0.106000000000     0.251500000000     0.789400000000     0          
C8       C      0.168000000000     0.096100000000     0.734180000000     0          
C9       C      0.146100000000     0.135400000000     0.747890000000     0          
C10      C      0.077000000000     0.324500000000     0.788700000000     0          
C11      C      0.196000000000     0.135300000000     0.721450000000     0          
C12      C      0.131000000000     0.095400000000     0.761270000000     0          
C13      C      0.072800000000     0.317400000000     0.761010000000     0          
C14      C      0.056500000000     0.518000000000     0.869140000000     0          
C15      C      0.355700000000     0.848100000000     0.661220000000     0          
C16      C      0.066500000000     0.461100000000     0.856710000000     0          
C17      C      0.316000000000     0.892900000000     0.673520000000     0          
C18      C      0.203500000000     0.212900000000     0.722220000000     0          
H1       H      0.227000000000     0.239000000000     0.714400000000     0          
C19      C      0.245600000000     0.914900000000     0.671550000000     0          
H2       H      0.219500000000     0.901700000000     0.662700000000     0          
C20      C      0.178900000000     0.978400000000     0.719530000000     0          
C21      C      0.126800000000     0.983100000000     0.746020000000     0          
H3       H      0.115100000000     0.933300000000     0.745100000000     0          
C22      C      0.113000000000     0.020000000000     0.759830000000     0          
C23      C      0.057800000000     0.355000000000     0.774610000000     0          
H4       H      0.034700000000     0.400900000000     0.774300000000     0          
C24      C      0.117500000000     0.260100000000     0.818160000000     0          
C25      C      0.161800000000     0.108700000000     0.790210000000     0          
C26      C      0.354600000000     0.911200000000     0.686600000000     0          
H5       H      0.403000000000     0.894700000000     0.687900000000     0          
C27      C      0.125600000000     0.219800000000     0.803280000000     0          
C28      C      0.223600000000     0.094500000000     0.707760000000     0          
C29      C      0.155300000000     0.151400000000     0.803770000000     0          
H6       H      0.171700000000     0.132300000000     0.813100000000     0          
C30      C      0.322000000000     0.953700000000     0.697720000000     0          
H7       H      0.348200000000     0.968100000000     0.706400000000     0          
C31      C      0.008200000000     0.417600000000     0.852300000000     0          
H8       H      0.964000000000     0.418900000000     0.857800000000     0          
C32      C      0.212000000000     0.958600000000     0.683240000000     0          
H9       H      0.163800000000     0.975700000000     0.682100000000     0          
C33      C      0.249900000000     0.974500000000     0.695700000000     0          
C34      C      0.140100000000     0.411800000000     0.835770000000     0          
H10      H      0.185000000000     0.406900000000     0.830600000000     0          
C35      C      0.078700000000     0.372600000000     0.831120000000     0          
C36      C      0.132900000000     0.459700000000     0.848620000000     0          
H11      H      0.172100000000     0.489900000000     0.851600000000     0          
C37      C      0.015900000000     0.372100000000     0.839660000000     0          
H12      H      0.977400000000     0.340500000000     0.836900000000     0          
C38      C      0.064400000000     0.365900000000     0.803250000000     0          
C39      C      0.150800000000     0.666500000000     0.911690000000     0          
C40      C      0.205400000000     0.646200000000     0.924490000000     0          
H13      H      0.225200000000     0.690600000000     0.929000000000     0          
H14      H      0.245000000000     0.617300000000     0.920200000000     0          
H15      H      0.180400000000     0.618200000000     0.932300000000     0          
Zr1      Zr     0.000000000000     0.750000000000     0.903560000000     0          
C1       C      0.612800000000     0.384800000000     0.026020000000     0          
Cl1      Cl     0.394980000000     0.284380000000     0.994570000000     0          
Zr2      Zr     0.070150000000     0.367790000000     0.124960000000     0          
C2       C      0.730000000000     0.407800000000     0.983670000000     0          
Cl2      Cl     0.724060000000     0.459010000000     0.041420000000     0          
Cl3      Cl     0.778320000000     0.319250000000     0.024420000000     0          
O1       O      0.979970000000     0.331410000000     0.137160000000     0          
Cl4      Cl     0.406740000000     0.443490000000     0.984770000000     0          
O2       O      0.897730000000     0.581420000000     0.897550000000     0          
O3       O      0.894950000000     0.221370000000     0.141210000000     0          
O4       O      0.224020000000     0.239730000000     0.124240000000     0          
O5       O      0.938900000000     0.660390000000     0.915620000000     0          
O6       O      0.194200000000     0.361400000000     0.123230000000     0          
O7       O      0.625400000000     0.507000000000     0.947210000000     0          
O8       O      0.323000000000     0.286400000000     0.053510000000     0          
O9       O      0.050900000000     0.338200000000     0.167190000000     0          
O10      O      0.837700000000     0.421000000000     0.968650000000     0          
O11      O      0.101200000000     0.422900000000     0.146880000000     0          
O12      O      0.513600000000     0.386500000000     0.080760000000     0          
N1       N      0.420700000000     0.336500000000     0.067100000000     0          
C3       C      0.535900000000     0.366600000000     0.025420000000     0          
C4       C      0.500700000000     0.360200000000     0.010950000000     0          
C5       C      0.501500000000     0.425000000000     0.984900000000     0          
C6       C      0.537600000000     0.395000000000     0.997710000000     0          
N2       N      0.731500000000     0.465800000000     0.958160000000     0          
C7       C      0.498500000000     0.356000000000     0.039400000000     0          
C8       C      0.653900000000     0.418000000000     0.984180000000     0          
C9       C      0.614600000000     0.396100000000     0.997890000000     0          
C10      C      0.425500000000     0.327000000000     0.038700000000     0          
C11      C      0.614700000000     0.446000000000     0.971450000000     0          
C12      C      0.654600000000     0.381000000000     0.011270000000     0          
C13      C      0.432600000000     0.322800000000     0.011010000000     0          
C14      C      0.232000000000     0.306500000000     0.119140000000     0          
C15      C      0.901900000000     0.605700000000     0.911220000000     0          
C16      C      0.288900000000     0.316500000000     0.106710000000     0          
C17      C      0.857100000000     0.566000000000     0.923520000000     0          
C18      C      0.537100000000     0.453500000000     0.972220000000     0          
H1       H      0.511000000000     0.477000000000     0.964400000000     0          
C19      C      0.835100000000     0.495600000000     0.921550000000     0          
H2       H      0.848300000000     0.469500000000     0.912700000000     0          
C20      C      0.771600000000     0.428900000000     0.969530000000     0          
C21      C      0.766900000000     0.376800000000     0.996020000000     0          
H3       H      0.816700000000     0.365100000000     0.995100000000     0          
C22      C      0.730000000000     0.363000000000     0.009830000000     0          
C23      C      0.395000000000     0.307800000000     0.024610000000     0          
H4       H      0.349100000000     0.284700000000     0.024300000000     0          
C24      C      0.489900000000     0.367500000000     0.068160000000     0          
C25      C      0.641300000000     0.411800000000     0.040210000000     0          
C26      C      0.838800000000     0.604600000000     0.936600000000     0          
H5       H      0.855300000000     0.653000000000     0.937900000000     0          
C27      C      0.530200000000     0.375600000000     0.053280000000     0          
C28      C      0.655500000000     0.473600000000     0.957760000000     0          
C29      C      0.598600000000     0.405300000000     0.053770000000     0          
H6       H      0.617700000000     0.421700000000     0.063100000000     0          
C30      C      0.796300000000     0.572000000000     0.947720000000     0          
H7       H      0.781900000000     0.598200000000     0.956400000000     0          
C31      C      0.332400000000     0.258200000000     0.102300000000     0          
H8       H      0.331100000000     0.214000000000     0.107800000000     0          
C32      C      0.791400000000     0.462000000000     0.933240000000     0          
H9       H      0.774300000000     0.413800000000     0.932100000000     0          
C33      C      0.775500000000     0.499900000000     0.945700000000     0          
C34      C      0.338200000000     0.390100000000     0.085770000000     0          
H10      H      0.343100000000     0.435000000000     0.080600000000     0          
C35      C      0.377400000000     0.328700000000     0.081120000000     0          
C36      C      0.290300000000     0.382900000000     0.098620000000     0          
H11      H      0.260100000000     0.422100000000     0.101600000000     0          
C37      C      0.377900000000     0.265900000000     0.089660000000     0          
H12      H      0.409500000000     0.227400000000     0.086900000000     0          
C38      C      0.384100000000     0.314400000000     0.053250000000     0          
C39      C      0.083500000000     0.400800000000     0.161690000000     0          
C40      C      0.103800000000     0.455400000000     0.174490000000     0          
H13      H      0.059400000000     0.475200000000     0.179000000000     0          
H14      H      0.132700000000     0.495000000000     0.170200000000     0          
H15      H      0.131800000000     0.430400000000     0.182300000000     0          
Zr1      Zr     0.000000000000     0.250000000000     0.153560000000     0          
C1       C      0.634800000000     0.137200000000     0.723980000000     0          
Cl1      Cl     0.534380000000     0.355020000000     0.755430000000     0          
Zr2      Zr     0.617790000000     0.679850000000     0.625040000000     0          
C2       C      0.657800000000     0.020000000000     0.766330000000     0          
Cl2      Cl     0.709010000000     0.025940000000     0.708580000000     0          
Cl3      Cl     0.569250000000     0.971680000000     0.725580000000     0          
O1       O      0.581410000000     0.770030000000     0.612840000000     0          
Cl4      Cl     0.693490000000     0.343260000000     0.765230000000     0          
O2       O      0.831420000000     0.852270000000     0.852450000000     0          
O3       O      0.471370000000     0.855050000000     0.608790000000     0          
O4       O      0.489730000000     0.525980000000     0.625760000000     0          
O5       O      0.910390000000     0.811100000000     0.834380000000     0          
O6       O      0.611400000000     0.555800000000     0.626770000000     0          
O7       O      0.757000000000     0.124600000000     0.802790000000     0          
O8       O      0.536400000000     0.427000000000     0.696490000000     0          
O9       O      0.588200000000     0.699100000000     0.582810000000     0          
O10      O      0.671000000000     0.912300000000     0.781350000000     0          
O11      O      0.672900000000     0.648800000000     0.603120000000     0          
O12      O      0.636500000000     0.236400000000     0.669240000000     0          
N1       N      0.586500000000     0.329300000000     0.682900000000     0          
C3       C      0.616600000000     0.214100000000     0.724580000000     0          
C4       C      0.610200000000     0.249300000000     0.739050000000     0          
C5       C      0.675000000000     0.248500000000     0.765100000000     0          
C6       C      0.645000000000     0.212400000000     0.752290000000     0          
N2       N      0.715800000000     0.018500000000     0.791840000000     0          
C7       C      0.606000000000     0.251500000000     0.710600000000     0          
C8       C      0.668000000000     0.096100000000     0.765820000000     0          
C9       C      0.646100000000     0.135400000000     0.752110000000     0          
C10      C      0.577000000000     0.324500000000     0.711300000000     0          
C11      C      0.696000000000     0.135300000000     0.778550000000     0          
C12      C      0.631000000000     0.095400000000     0.738730000000     0          
C13      C      0.572800000000     0.317400000000     0.738990000000     0          
C14      C      0.556500000000     0.518000000000     0.630860000000     0          
C15      C      0.855700000000     0.848100000000     0.838780000000     0          
C16      C      0.566500000000     0.461100000000     0.643290000000     0          
C17      C      0.816000000000     0.892900000000     0.826480000000     0          
C18      C      0.703500000000     0.212900000000     0.777780000000     0          
H1       H      0.727000000000     0.239000000000     0.785600000000     0          
C19      C      0.745600000000     0.914900000000     0.828450000000     0          
H2       H      0.719500000000     0.901700000000     0.837300000000     0          
C20      C      0.678900000000     0.978400000000     0.780470000000     0          
C21      C      0.626800000000     0.983100000000     0.753980000000     0          
H3       H      0.615100000000     0.933300000000     0.754900000000     0          
C22      C      0.613000000000     0.020000000000     0.740170000000     0          
C23      C      0.557800000000     0.355000000000     0.725390000000     0          
H4       H      0.534700000000     0.400900000000     0.725700000000     0          
C24      C      0.617500000000     0.260100000000     0.681840000000     0          
C25      C      0.661800000000     0.108700000000     0.709790000000     0          
C26      C      0.854600000000     0.911200000000     0.813400000000     0          
H5       H      0.903000000000     0.894700000000     0.812100000000     0          
C27      C      0.625600000000     0.219800000000     0.696720000000     0          
C28      C      0.723600000000     0.094500000000     0.792240000000     0          
C29      C      0.655300000000     0.151400000000     0.696230000000     0          
H6       H      0.671700000000     0.132300000000     0.686900000000     0          
C30      C      0.822000000000     0.953700000000     0.802280000000     0          
H7       H      0.848200000000     0.968100000000     0.793600000000     0          
C31      C      0.508200000000     0.417600000000     0.647700000000     0          
H8       H      0.464000000000     0.418900000000     0.642200000000     0          
C32      C      0.712000000000     0.958600000000     0.816760000000     0          
H9       H      0.663800000000     0.975700000000     0.817900000000     0          
C33      C      0.749900000000     0.974500000000     0.804300000000     0          
C34      C      0.640100000000     0.411800000000     0.664230000000     0          
H10      H      0.685000000000     0.406900000000     0.669400000000     0          
C35      C      0.578700000000     0.372600000000     0.668880000000     0          
C36      C      0.632900000000     0.459700000000     0.651380000000     0          
H11      H      0.672100000000     0.489900000000     0.648400000000     0          
C37      C      0.515900000000     0.372100000000     0.660340000000     0          
H12      H      0.477400000000     0.340500000000     0.663100000000     0          
C38      C      0.564400000000     0.365900000000     0.696750000000     0          
C39      C      0.650800000000     0.666500000000     0.588310000000     0          
C40      C      0.705400000000     0.646200000000     0.575510000000     0          
H13      H      0.725200000000     0.690600000000     0.571000000000     0          
H14      H      0.745000000000     0.617300000000     0.579800000000     0          
H15      H      0.680400000000     0.618200000000     0.567700000000     0          
Zr1      Zr     0.500000000000     0.750000000000     0.596440000000     0          
C1       C      0.112800000000     0.384800000000     0.473980000000     0          
Cl1      Cl     0.894980000000     0.284380000000     0.505430000000     0          
Zr2      Zr     0.570150000000     0.367790000000     0.375040000000     0          
C2       C      0.230000000000     0.407800000000     0.516330000000     0          
Cl2      Cl     0.224060000000     0.459010000000     0.458580000000     0          
Cl3      Cl     0.278320000000     0.319250000000     0.475580000000     0          
O1       O      0.479970000000     0.331410000000     0.362840000000     0          
Cl4      Cl     0.906740000000     0.443490000000     0.515230000000     0          
O2       O      0.397730000000     0.581420000000     0.602450000000     0          
O3       O      0.394950000000     0.221370000000     0.358790000000     0          
O4       O      0.724020000000     0.239730000000     0.375760000000     0          
O5       O      0.438900000000     0.660390000000     0.584380000000     0          
O6       O      0.694200000000     0.361400000000     0.376770000000     0          
O7       O      0.125400000000     0.507000000000     0.552790000000     0          
O8       O      0.823000000000     0.286400000000     0.446490000000     0          
O9       O      0.550900000000     0.338200000000     0.332810000000     0          
O10      O      0.337700000000     0.421000000000     0.531350000000     0          
O11      O      0.601200000000     0.422900000000     0.353120000000     0          
O12      O      0.013600000000     0.386500000000     0.419240000000     0          
N1       N      0.920700000000     0.336500000000     0.432900000000     0          
C3       C      0.035900000000     0.366600000000     0.474580000000     0          
C4       C      0.000700000000     0.360200000000     0.489050000000     0          
C5       C      0.001500000000     0.425000000000     0.515100000000     0          
C6       C      0.037600000000     0.395000000000     0.502290000000     0          
N2       N      0.231500000000     0.465800000000     0.541840000000     0          
C7       C      0.998500000000     0.356000000000     0.460600000000     0          
C8       C      0.153900000000     0.418000000000     0.515820000000     0          
C9       C      0.114600000000     0.396100000000     0.502110000000     0          
C10      C      0.925500000000     0.327000000000     0.461300000000     0          
C11      C      0.114700000000     0.446000000000     0.528550000000     0          
C12      C      0.154600000000     0.381000000000     0.488730000000     0          
C13      C      0.932600000000     0.322800000000     0.488990000000     0          
C14      C      0.732000000000     0.306500000000     0.380860000000     0          
C15      C      0.401900000000     0.605700000000     0.588780000000     0          
C16      C      0.788900000000     0.316500000000     0.393290000000     0          
C17      C      0.357100000000     0.566000000000     0.576480000000     0          
C18      C      0.037100000000     0.453500000000     0.527780000000     0          
H1       H      0.011000000000     0.477000000000     0.535600000000     0          
C19      C      0.335100000000     0.495600000000     0.578450000000     0          
H2       H      0.348300000000     0.469500000000     0.587300000000     0          
C20      C      0.271600000000     0.428900000000     0.530470000000     0          
C21      C      0.266900000000     0.376800000000     0.503980000000     0          
H3       H      0.316700000000     0.365100000000     0.504900000000     0          
C22      C      0.230000000000     0.363000000000     0.490170000000     0          
C23      C      0.895000000000     0.307800000000     0.475390000000     0          
H4       H      0.849100000000     0.284700000000     0.475700000000     0          
C24      C      0.989900000000     0.367500000000     0.431840000000     0          
C25      C      0.141300000000     0.411800000000     0.459790000000     0          
C26      C      0.338800000000     0.604600000000     0.563400000000     0          
H5       H      0.355300000000     0.653000000000     0.562100000000     0          
C27      C      0.030200000000     0.375600000000     0.446720000000     0          
C28      C      0.155500000000     0.473600000000     0.542240000000     0          
C29      C      0.098600000000     0.405300000000     0.446230000000     0          
H6       H      0.117700000000     0.421700000000     0.436900000000     0          
C30      C      0.296300000000     0.572000000000     0.552280000000     0          
H7       H      0.281900000000     0.598200000000     0.543600000000     0          
C31      C      0.832400000000     0.258200000000     0.397700000000     0          
H8       H      0.831100000000     0.214000000000     0.392200000000     0          
C32      C      0.291400000000     0.462000000000     0.566760000000     0          
H9       H      0.274300000000     0.413800000000     0.567900000000     0          
C33      C      0.275500000000     0.499900000000     0.554300000000     0          
C34      C      0.838200000000     0.390100000000     0.414230000000     0          
H10      H      0.843100000000     0.435000000000     0.419400000000     0          
C35      C      0.877400000000     0.328700000000     0.418880000000     0          
C36      C      0.790300000000     0.382900000000     0.401380000000     0          
H11      H      0.760100000000     0.422100000000     0.398400000000     0          
C37      C      0.877900000000     0.265900000000     0.410340000000     0          
H12      H      0.909500000000     0.227400000000     0.413100000000     0          
C38      C      0.884100000000     0.314400000000     0.446750000000     0          
C39      C      0.583500000000     0.400800000000     0.338310000000     0          
C40      C      0.603800000000     0.455400000000     0.325510000000     0          
H13      H      0.559400000000     0.475200000000     0.321000000000     0          
H14      H      0.632700000000     0.495000000000     0.329800000000     0          
H15      H      0.631800000000     0.430400000000     0.317700000000     0          
Zr1      Zr     0.500000000000     0.250000000000     0.346440000000     0          
C1       C      0.865200000000     0.862800000000     0.223980000000     0          
Cl1      Cl     0.965620000000     0.644980000000     0.255430000000     0          
Zr2      Zr     0.882210000000     0.320150000000     0.125040000000     0          
C2       C      0.842200000000     0.980000000000     0.266330000000     0          
Cl2      Cl     0.790990000000     0.974060000000     0.208580000000     0          
Cl3      Cl     0.930750000000     0.028320000000     0.225580000000     0          
O1       O      0.918590000000     0.229970000000     0.112840000000     0          
Cl4      Cl     0.806510000000     0.656740000000     0.265230000000     0          
O2       O      0.668580000000     0.147730000000     0.352450000000     0          
O3       O      0.028630000000     0.144950000000     0.108790000000     0          
O4       O      0.010270000000     0.474020000000     0.125760000000     0          
O5       O      0.589610000000     0.188900000000     0.334380000000     0          
O6       O      0.888600000000     0.444200000000     0.126770000000     0          
O7       O      0.743000000000     0.875400000000     0.302790000000     0          
O8       O      0.963600000000     0.573000000000     0.196490000000     0          
O9       O      0.911800000000     0.300900000000     0.082810000000     0          
O10      O      0.829000000000     0.087700000000     0.281350000000     0          
O11      O      0.827100000000     0.351200000000     0.103120000000     0          
O12      O      0.863500000000     0.763600000000     0.169240000000     0          
N1       N      0.913500000000     0.670700000000     0.182900000000     0          
C3       C      0.883400000000     0.785900000000     0.224580000000     0          
C4       C      0.889800000000     0.750700000000     0.239050000000     0          
C5       C      0.825000000000     0.751500000000     0.265100000000     0          
C6       C      0.855000000000     0.787600000000     0.252290000000     0          
N2       N      0.784200000000     0.981500000000     0.291840000000     0          
C7       C      0.894000000000     0.748500000000     0.210600000000     0          
C8       C      0.832000000000     0.903900000000     0.265820000000     0          
C9       C      0.853900000000     0.864600000000     0.252110000000     0          
C10      C      0.923000000000     0.675500000000     0.211300000000     0          
C11      C      0.804000000000     0.864700000000     0.278550000000     0          
C12      C      0.869000000000     0.904600000000     0.238730000000     0          
C13      C      0.927200000000     0.682600000000     0.238990000000     0          
C14      C      0.943500000000     0.482000000000     0.130860000000     0          
C15      C      0.644300000000     0.151900000000     0.338780000000     0          
C16      C      0.933500000000     0.538900000000     0.143290000000     0          
C17      C      0.684000000000     0.107100000000     0.326480000000     0          
C18      C      0.796500000000     0.787100000000     0.277780000000     0          
H1       H      0.773000000000     0.761000000000     0.285600000000     0          
C19      C      0.754400000000     0.085100000000     0.328450000000     0          
H2       H      0.780500000000     0.098300000000     0.337300000000     0          
C20      C      0.821100000000     0.021600000000     0.280470000000     0          
C21      C      0.873200000000     0.016900000000     0.253980000000     0          
H3       H      0.884900000000     0.066700000000     0.254900000000     0          
C22      C      0.887000000000     0.980000000000     0.240170000000     0          
C23      C      0.942200000000     0.645000000000     0.225390000000     0          
H4       H      0.965300000000     0.599100000000     0.225700000000     0          
C24      C      0.882500000000     0.739900000000     0.181840000000     0          
C25      C      0.838200000000     0.891300000000     0.209790000000     0          
C26      C      0.645400000000     0.088800000000     0.313400000000     0          
H5       H      0.597000000000     0.105300000000     0.312100000000     0          
C27      C      0.874400000000     0.780200000000     0.196720000000     0          
C28      C      0.776400000000     0.905500000000     0.292240000000     0          
C29      C      0.844700000000     0.848600000000     0.196230000000     0          
H6       H      0.828300000000     0.867700000000     0.186900000000     0          
C30      C      0.678000000000     0.046300000000     0.302280000000     0          
H7       H      0.651800000000     0.031900000000     0.293600000000     0          
C31      C      0.991800000000     0.582400000000     0.147700000000     0          
H8       H      0.036000000000     0.581100000000     0.142200000000     0          
C32      C      0.788000000000     0.041400000000     0.316760000000     0          
H9       H      0.836200000000     0.024300000000     0.317900000000     0          
C33      C      0.750100000000     0.025500000000     0.304300000000     0          
C34      C      0.859900000000     0.588200000000     0.164230000000     0          
H10      H      0.815000000000     0.593100000000     0.169400000000     0          
C35      C      0.921300000000     0.627400000000     0.168880000000     0          
C36      C      0.867100000000     0.540300000000     0.151380000000     0          
H11      H      0.827900000000     0.510100000000     0.148400000000     0          
C37      C      0.984100000000     0.627900000000     0.160340000000     0          
H12      H      0.022600000000     0.659500000000     0.163100000000     0          
C38      C      0.935600000000     0.634100000000     0.196750000000     0          
C39      C      0.849200000000     0.333500000000     0.088310000000     0          
C40      C      0.794600000000     0.353800000000     0.075510000000     0          
H13      H      0.774800000000     0.309400000000     0.071000000000     0          
H14      H      0.755000000000     0.382700000000     0.079800000000     0          
H15      H      0.819600000000     0.381800000000     0.067700000000     0          
Zr1      Zr     0.000000000000     0.250000000000     0.096440000000     0          
C1       C      0.387200000000     0.615200000000     0.973980000000     0          
Cl1      Cl     0.605020000000     0.715620000000     0.005430000000     0          
Zr2      Zr     0.929850000000     0.632210000000     0.875040000000     0          
C2       C      0.270000000000     0.592200000000     0.016330000000     0          
Cl2      Cl     0.275940000000     0.540990000000     0.958580000000     0          
Cl3      Cl     0.221680000000     0.680750000000     0.975580000000     0          
O1       O      0.020030000000     0.668590000000     0.862840000000     0          
Cl4      Cl     0.593260000000     0.556510000000     0.015230000000     0          
O2       O      0.102270000000     0.418580000000     0.102450000000     0          
O3       O      0.105050000000     0.778630000000     0.858790000000     0          
O4       O      0.775980000000     0.760270000000     0.875760000000     0          
O5       O      0.061100000000     0.339610000000     0.084380000000     0          
O6       O      0.805800000000     0.638600000000     0.876770000000     0          
O7       O      0.374600000000     0.493000000000     0.052790000000     0          
O8       O      0.677000000000     0.713600000000     0.946490000000     0          
O9       O      0.949100000000     0.661800000000     0.832810000000     0          
O10      O      0.162300000000     0.579000000000     0.031350000000     0          
O11      O      0.898800000000     0.577100000000     0.853120000000     0          
O12      O      0.486400000000     0.613500000000     0.919240000000     0          
N1       N      0.579300000000     0.663500000000     0.932900000000     0          
C3       C      0.464100000000     0.633400000000     0.974580000000     0          
C4       C      0.499300000000     0.639800000000     0.989050000000     0          
C5       C      0.498500000000     0.575000000000     0.015100000000     0          
C6       C      0.462400000000     0.605000000000     0.002290000000     0          
N2       N      0.268500000000     0.534200000000     0.041840000000     0          
C7       C      0.501500000000     0.644000000000     0.960600000000     0          
C8       C      0.346100000000     0.582000000000     0.015820000000     0          
C9       C      0.385400000000     0.603900000000     0.002110000000     0          
C10      C      0.574500000000     0.673000000000     0.961300000000     0          
C11      C      0.385300000000     0.554000000000     0.028550000000     0          
C12      C      0.345400000000     0.619000000000     0.988730000000     0          
C13      C      0.567400000000     0.677200000000     0.988990000000     0          
C14      C      0.768000000000     0.693500000000     0.880860000000     0          
C15      C      0.098100000000     0.394300000000     0.088780000000     0          
C16      C      0.711100000000     0.683500000000     0.893290000000     0          
C17      C      0.142900000000     0.434000000000     0.076480000000     0          
C18      C      0.462900000000     0.546500000000     0.027780000000     0          
H1       H      0.489000000000     0.523000000000     0.035600000000     0          
C19      C      0.164900000000     0.504400000000     0.078450000000     0          
H2       H      0.151700000000     0.530500000000     0.087300000000     0          
C20      C      0.228400000000     0.571100000000     0.030470000000     0          
C21      C      0.233100000000     0.623200000000     0.003980000000     0          
H3       H      0.183300000000     0.634900000000     0.004900000000     0          
C22      C      0.270000000000     0.637000000000     0.990170000000     0          
C23      C      0.605000000000     0.692200000000     0.975390000000     0          
H4       H      0.650900000000     0.715300000000     0.975700000000     0          
C24      C      0.510100000000     0.632500000000     0.931840000000     0          
C25      C      0.358700000000     0.588200000000     0.959790000000     0          
C26      C      0.161200000000     0.395400000000     0.063400000000     0          
H5       H      0.144700000000     0.347000000000     0.062100000000     0          
C27      C      0.469800000000     0.624400000000     0.946720000000     0          
C28      C      0.344500000000     0.526400000000     0.042240000000     0          
C29      C      0.401400000000     0.594700000000     0.946230000000     0          
H6       H      0.382300000000     0.578300000000     0.936900000000     0          
C30      C      0.203700000000     0.428000000000     0.052280000000     0          
H7       H      0.218100000000     0.401800000000     0.043600000000     0          
C31      C      0.667600000000     0.741800000000     0.897700000000     0          
H8       H      0.668900000000     0.786000000000     0.892200000000     0          
C32      C      0.208600000000     0.538000000000     0.066760000000     0          
H9       H      0.225700000000     0.586200000000     0.067900000000     0          
C33      C      0.224500000000     0.500100000000     0.054300000000     0          
C34      C      0.661800000000     0.609900000000     0.914230000000     0          
H10      H      0.656900000000     0.565000000000     0.919400000000     0          
C35      C      0.622600000000     0.671300000000     0.918880000000     0          
C36      C      0.709700000000     0.617100000000     0.901380000000     0          
H11      H      0.739900000000     0.577900000000     0.898400000000     0          
C37      C      0.622100000000     0.734100000000     0.910340000000     0          
H12      H      0.590500000000     0.772600000000     0.913100000000     0          
C38      C      0.615900000000     0.685600000000     0.946750000000     0          
C39      C      0.916500000000     0.599200000000     0.838310000000     0          
C40      C      0.896200000000     0.544600000000     0.825510000000     0          
H13      H      0.940600000000     0.524800000000     0.821000000000     0          
H14      H      0.867300000000     0.505000000000     0.829800000000     0          
H15      H      0.868200000000     0.569600000000     0.817700000000     0          
Zr1      Zr     0.000000000000     0.750000000000     0.846440000000     0          
C1       C      0.865200000000     0.362800000000     0.776020000000     0          
Cl1      Cl     0.965620000000     0.144980000000     0.744570000000     0          
Zr2      Zr     0.882210000000     0.820150000000     0.874960000000     0          
C2       C      0.842200000000     0.480000000000     0.733670000000     0          
Cl2      Cl     0.790990000000     0.474060000000     0.791420000000     0          
Cl3      Cl     0.930750000000     0.528320000000     0.774420000000     0          
O1       O      0.918590000000     0.729970000000     0.887160000000     0          
Cl4      Cl     0.806510000000     0.156740000000     0.734770000000     0          
O2       O      0.668580000000     0.647730000000     0.647550000000     0          
O3       O      0.028630000000     0.644950000000     0.891210000000     0          
O4       O      0.010270000000     0.974020000000     0.874240000000     0          
O5       O      0.589610000000     0.688900000000     0.665620000000     0          
O6       O      0.888600000000     0.944200000000     0.873230000000     0          
O7       O      0.743000000000     0.375400000000     0.697210000000     0          
O8       O      0.963600000000     0.073000000000     0.803510000000     0          
O9       O      0.911800000000     0.800900000000     0.917190000000     0          
O10      O      0.829000000000     0.587700000000     0.718650000000     0          
O11      O      0.827100000000     0.851200000000     0.896880000000     0          
O12      O      0.863500000000     0.263600000000     0.830760000000     0          
N1       N      0.913500000000     0.170700000000     0.817100000000     0          
C3       C      0.883400000000     0.285900000000     0.775420000000     0          
C4       C      0.889800000000     0.250700000000     0.760950000000     0          
C5       C      0.825000000000     0.251500000000     0.734900000000     0          
C6       C      0.855000000000     0.287600000000     0.747710000000     0          
N2       N      0.784200000000     0.481500000000     0.708160000000     0          
C7       C      0.894000000000     0.248500000000     0.789400000000     0          
C8       C      0.832000000000     0.403900000000     0.734180000000     0          
C9       C      0.853900000000     0.364600000000     0.747890000000     0          
C10      C      0.923000000000     0.175500000000     0.788700000000     0          
C11      C      0.804000000000     0.364700000000     0.721450000000     0          
C12      C      0.869000000000     0.404600000000     0.761270000000     0          
C13      C      0.927200000000     0.182600000000     0.761010000000     0          
C14      C      0.943500000000     0.982000000000     0.869140000000     0          
C15      C      0.644300000000     0.651900000000     0.661220000000     0          
C16      C      0.933500000000     0.038900000000     0.856710000000     0          
C17      C      0.684000000000     0.607100000000     0.673520000000     0          
C18      C      0.796500000000     0.287100000000     0.722220000000     0          
H1       H      0.773000000000     0.261000000000     0.714400000000     0          
C19      C      0.754400000000     0.585100000000     0.671550000000     0          
H2       H      0.780500000000     0.598300000000     0.662700000000     0          
C20      C      0.821100000000     0.521600000000     0.719530000000     0          
C21      C      0.873200000000     0.516900000000     0.746020000000     0          
H3       H      0.884900000000     0.566700000000     0.745100000000     0          
C22      C      0.887000000000     0.480000000000     0.759830000000     0          
C23      C      0.942200000000     0.145000000000     0.774610000000     0          
H4       H      0.965300000000     0.099100000000     0.774300000000     0          
C24      C      0.882500000000     0.239900000000     0.818160000000     0          
C25      C      0.838200000000     0.391300000000     0.790210000000     0          
C26      C      0.645400000000     0.588800000000     0.686600000000     0          
H5       H      0.597000000000     0.605300000000     0.687900000000     0          
C27      C      0.874400000000     0.280200000000     0.803280000000     0          
C28      C      0.776400000000     0.405500000000     0.707760000000     0          
C29      C      0.844700000000     0.348600000000     0.803770000000     0          
H6       H      0.828300000000     0.367700000000     0.813100000000     0          
C30      C      0.678000000000     0.546300000000     0.697720000000     0          
H7       H      0.651800000000     0.531900000000     0.706400000000     0          
C31      C      0.991800000000     0.082400000000     0.852300000000     0          
H8       H      0.036000000000     0.081100000000     0.857800000000     0          
C32      C      0.788000000000     0.541400000000     0.683240000000     0          
H9       H      0.836200000000     0.524300000000     0.682100000000     0          
C33      C      0.750100000000     0.525500000000     0.695700000000     0          
C34      C      0.859900000000     0.088200000000     0.835770000000     0          
H10      H      0.815000000000     0.093100000000     0.830600000000     0          
C35      C      0.921300000000     0.127400000000     0.831120000000     0          
C36      C      0.867100000000     0.040300000000     0.848620000000     0          
H11      H      0.827900000000     0.010100000000     0.851600000000     0          
C37      C      0.984100000000     0.127900000000     0.839660000000     0          
H12      H      0.022600000000     0.159500000000     0.836900000000     0          
C38      C      0.935600000000     0.134100000000     0.803250000000     0          
C39      C      0.849200000000     0.833500000000     0.911690000000     0          
C40      C      0.794600000000     0.853800000000     0.924490000000     0          
H13      H      0.774800000000     0.809400000000     0.929000000000     0          
H14      H      0.755000000000     0.882700000000     0.920200000000     0          
H15      H      0.819600000000     0.881800000000     0.932300000000     0          
C1       C      0.387200000000     0.115200000000     0.026020000000     0          
Cl1      Cl     0.605020000000     0.215620000000     0.994570000000     0          
Zr2      Zr     0.929850000000     0.132210000000     0.124960000000     0          
C2       C      0.270000000000     0.092200000000     0.983670000000     0          
Cl2      Cl     0.275940000000     0.040990000000     0.041420000000     0          
Cl3      Cl     0.221680000000     0.180750000000     0.024420000000     0          
O1       O      0.020030000000     0.168590000000     0.137160000000     0          
Cl4      Cl     0.593260000000     0.056510000000     0.984770000000     0          
O2       O      0.102270000000     0.918580000000     0.897550000000     0          
O3       O      0.105050000000     0.278630000000     0.141210000000     0          
O4       O      0.775980000000     0.260270000000     0.124240000000     0          
O5       O      0.061100000000     0.839610000000     0.915620000000     0          
O6       O      0.805800000000     0.138600000000     0.123230000000     0          
O7       O      0.374600000000     0.993000000000     0.947210000000     0          
O8       O      0.677000000000     0.213600000000     0.053510000000     0          
O9       O      0.949100000000     0.161800000000     0.167190000000     0          
O10      O      0.162300000000     0.079000000000     0.968650000000     0          
O11      O      0.898800000000     0.077100000000     0.146880000000     0          
O12      O      0.486400000000     0.113500000000     0.080760000000     0          
N1       N      0.579300000000     0.163500000000     0.067100000000     0          
C3       C      0.464100000000     0.133400000000     0.025420000000     0          
C4       C      0.499300000000     0.139800000000     0.010950000000     0          
C5       C      0.498500000000     0.075000000000     0.984900000000     0          
C6       C      0.462400000000     0.105000000000     0.997710000000     0          
N2       N      0.268500000000     0.034200000000     0.958160000000     0          
C7       C      0.501500000000     0.144000000000     0.039400000000     0          
C8       C      0.346100000000     0.082000000000     0.984180000000     0          
C9       C      0.385400000000     0.103900000000     0.997890000000     0          
C10      C      0.574500000000     0.173000000000     0.038700000000     0          
C11      C      0.385300000000     0.054000000000     0.971450000000     0          
C12      C      0.345400000000     0.119000000000     0.011270000000     0          
C13      C      0.567400000000     0.177200000000     0.011010000000     0          
C14      C      0.768000000000     0.193500000000     0.119140000000     0          
C15      C      0.098100000000     0.894300000000     0.911220000000     0          
C16      C      0.711100000000     0.183500000000     0.106710000000     0          
C17      C      0.142900000000     0.934000000000     0.923520000000     0          
C18      C      0.462900000000     0.046500000000     0.972220000000     0          
H1       H      0.489000000000     0.023000000000     0.964400000000     0          
C19      C      0.164900000000     0.004400000000     0.921550000000     0          
H2       H      0.151700000000     0.030500000000     0.912700000000     0          
C20      C      0.228400000000     0.071100000000     0.969530000000     0          
C21      C      0.233100000000     0.123200000000     0.996020000000     0          
H3       H      0.183300000000     0.134900000000     0.995100000000     0          
C22      C      0.270000000000     0.137000000000     0.009830000000     0          
C23      C      0.605000000000     0.192200000000     0.024610000000     0          
H4       H      0.650900000000     0.215300000000     0.024300000000     0          
C24      C      0.510100000000     0.132500000000     0.068160000000     0          
C25      C      0.358700000000     0.088200000000     0.040210000000     0          
C26      C      0.161200000000     0.895400000000     0.936600000000     0          
H5       H      0.144700000000     0.847000000000     0.937900000000     0          
C27      C      0.469800000000     0.124400000000     0.053280000000     0          
C28      C      0.344500000000     0.026400000000     0.957760000000     0          
C29      C      0.401400000000     0.094700000000     0.053770000000     0          
H6       H      0.382300000000     0.078300000000     0.063100000000     0          
C30      C      0.203700000000     0.928000000000     0.947720000000     0          
H7       H      0.218100000000     0.901800000000     0.956400000000     0          
C31      C      0.667600000000     0.241800000000     0.102300000000     0          
H8       H      0.668900000000     0.286000000000     0.107800000000     0          
C32      C      0.208600000000     0.038000000000     0.933240000000     0          
H9       H      0.225700000000     0.086200000000     0.932100000000     0          
C33      C      0.224500000000     0.000100000000     0.945700000000     0          
C34      C      0.661800000000     0.109900000000     0.085770000000     0          
H10      H      0.656900000000     0.065000000000     0.080600000000     0          
C35      C      0.622600000000     0.171300000000     0.081120000000     0          
C36      C      0.709700000000     0.117100000000     0.098620000000     0          
H11      H      0.739900000000     0.077900000000     0.101600000000     0          
C37      C      0.622100000000     0.234100000000     0.089660000000     0          
H12      H      0.590500000000     0.272600000000     0.086900000000     0          
C38      C      0.615900000000     0.185600000000     0.053250000000     0          
C39      C      0.916500000000     0.099200000000     0.161690000000     0          
C40      C      0.896200000000     0.044600000000     0.174490000000     0          
H13      H      0.940600000000     0.024800000000     0.179000000000     0          
H14      H      0.867300000000     0.005000000000     0.170200000000     0          
H15      H      0.868200000000     0.069600000000     0.182300000000     0          
C1       C      0.634800000000     0.637200000000     0.276020000000     0          
Cl1      Cl     0.534380000000     0.855020000000     0.244570000000     0          
Zr2      Zr     0.617790000000     0.179850000000     0.374960000000     0          
C2       C      0.657800000000     0.520000000000     0.233670000000     0          
Cl2      Cl     0.709010000000     0.525940000000     0.291420000000     0          
Cl3      Cl     0.569250000000     0.471680000000     0.274420000000     0          
O1       O      0.581410000000     0.270030000000     0.387160000000     0          
Cl4      Cl     0.693490000000     0.843260000000     0.234770000000     0          
O2       O      0.831420000000     0.352270000000     0.147550000000     0          
O3       O      0.471370000000     0.355050000000     0.391210000000     0          
O4       O      0.489730000000     0.025980000000     0.374240000000     0          
O5       O      0.910390000000     0.311100000000     0.165620000000     0          
O6       O      0.611400000000     0.055800000000     0.373230000000     0          
O7       O      0.757000000000     0.624600000000     0.197210000000     0          
O8       O      0.536400000000     0.927000000000     0.303510000000     0          
O9       O      0.588200000000     0.199100000000     0.417190000000     0          
O10      O      0.671000000000     0.412300000000     0.218650000000     0          
O11      O      0.672900000000     0.148800000000     0.396880000000     0          
O12      O      0.636500000000     0.736400000000     0.330760000000     0          
N1       N      0.586500000000     0.829300000000     0.317100000000     0          
C3       C      0.616600000000     0.714100000000     0.275420000000     0          
C4       C      0.610200000000     0.749300000000     0.260950000000     0          
C5       C      0.675000000000     0.748500000000     0.234900000000     0          
C6       C      0.645000000000     0.712400000000     0.247710000000     0          
N2       N      0.715800000000     0.518500000000     0.208160000000     0          
C7       C      0.606000000000     0.751500000000     0.289400000000     0          
C8       C      0.668000000000     0.596100000000     0.234180000000     0          
C9       C      0.646100000000     0.635400000000     0.247890000000     0          
C10      C      0.577000000000     0.824500000000     0.288700000000     0          
C11      C      0.696000000000     0.635300000000     0.221450000000     0          
C12      C      0.631000000000     0.595400000000     0.261270000000     0          
C13      C      0.572800000000     0.817400000000     0.261010000000     0          
C14      C      0.556500000000     0.018000000000     0.369140000000     0          
C15      C      0.855700000000     0.348100000000     0.161220000000     0          
C16      C      0.566500000000     0.961100000000     0.356710000000     0          
C17      C      0.816000000000     0.392900000000     0.173520000000     0          
C18      C      0.703500000000     0.712900000000     0.222220000000     0          
H1       H      0.727000000000     0.739000000000     0.214400000000     0          
C19      C      0.745600000000     0.414900000000     0.171550000000     0          
H2       H      0.719500000000     0.401700000000     0.162700000000     0          
C20      C      0.678900000000     0.478400000000     0.219530000000     0          
C21      C      0.626800000000     0.483100000000     0.246020000000     0          
H3       H      0.615100000000     0.433300000000     0.245100000000     0          
C22      C      0.613000000000     0.520000000000     0.259830000000     0          
C23      C      0.557800000000     0.855000000000     0.274610000000     0          
H4       H      0.534700000000     0.900900000000     0.274300000000     0          
C24      C      0.617500000000     0.760100000000     0.318160000000     0          
C25      C      0.661800000000     0.608700000000     0.290210000000     0          
C26      C      0.854600000000     0.411200000000     0.186600000000     0          
H5       H      0.903000000000     0.394700000000     0.187900000000     0          
C27      C      0.625600000000     0.719800000000     0.303280000000     0          
C28      C      0.723600000000     0.594500000000     0.207760000000     0          
C29      C      0.655300000000     0.651400000000     0.303770000000     0          
H6       H      0.671700000000     0.632300000000     0.313100000000     0          
C30      C      0.822000000000     0.453700000000     0.197720000000     0          
H7       H      0.848200000000     0.468100000000     0.206400000000     0          
C31      C      0.508200000000     0.917600000000     0.352300000000     0          
H8       H      0.464000000000     0.918900000000     0.357800000000     0          
C32      C      0.712000000000     0.458600000000     0.183240000000     0          
H9       H      0.663800000000     0.475700000000     0.182100000000     0          
C33      C      0.749900000000     0.474500000000     0.195700000000     0          
C34      C      0.640100000000     0.911800000000     0.335770000000     0          
H10      H      0.685000000000     0.906900000000     0.330600000000     0          
C35      C      0.578700000000     0.872600000000     0.331120000000     0          
C36      C      0.632900000000     0.959700000000     0.348620000000     0          
H11      H      0.672100000000     0.989900000000     0.351600000000     0          
C37      C      0.515900000000     0.872100000000     0.339660000000     0          
H12      H      0.477400000000     0.840500000000     0.336900000000     0          
C38      C      0.564400000000     0.865900000000     0.303250000000     0          
C39      C      0.650800000000     0.166500000000     0.411690000000     0          
C40      C      0.705400000000     0.146200000000     0.424490000000     0          
H13      H      0.725200000000     0.190600000000     0.429000000000     0          
H14      H      0.745000000000     0.117300000000     0.420200000000     0          
H15      H      0.680400000000     0.118200000000     0.432300000000     0          
C1       C      0.112800000000     0.884800000000     0.526020000000     0          
Cl1      Cl     0.894980000000     0.784380000000     0.494570000000     0          
Zr2      Zr     0.570150000000     0.867790000000     0.624960000000     0          
C2       C      0.230000000000     0.907800000000     0.483670000000     0          
Cl2      Cl     0.224060000000     0.959010000000     0.541420000000     0          
Cl3      Cl     0.278320000000     0.819250000000     0.524420000000     0          
O1       O      0.479970000000     0.831410000000     0.637160000000     0          
Cl4      Cl     0.906740000000     0.943490000000     0.484770000000     0          
O2       O      0.397730000000     0.081420000000     0.397550000000     0          
O3       O      0.394950000000     0.721370000000     0.641210000000     0          
O4       O      0.724020000000     0.739730000000     0.624240000000     0          
O5       O      0.438900000000     0.160390000000     0.415620000000     0          
O6       O      0.694200000000     0.861400000000     0.623230000000     0          
O7       O      0.125400000000     0.007000000000     0.447210000000     0          
O8       O      0.823000000000     0.786400000000     0.553510000000     0          
O9       O      0.550900000000     0.838200000000     0.667190000000     0          
O10      O      0.337700000000     0.921000000000     0.468650000000     0          
O11      O      0.601200000000     0.922900000000     0.646880000000     0          
O12      O      0.013600000000     0.886500000000     0.580760000000     0          
N1       N      0.920700000000     0.836500000000     0.567100000000     0          
C3       C      0.035900000000     0.866600000000     0.525420000000     0          
C4       C      0.000700000000     0.860200000000     0.510950000000     0          
C5       C      0.001500000000     0.925000000000     0.484900000000     0          
C6       C      0.037600000000     0.895000000000     0.497710000000     0          
N2       N      0.231500000000     0.965800000000     0.458160000000     0          
C7       C      0.998500000000     0.856000000000     0.539400000000     0          
C8       C      0.153900000000     0.918000000000     0.484180000000     0          
C9       C      0.114600000000     0.896100000000     0.497890000000     0          
C10      C      0.925500000000     0.827000000000     0.538700000000     0          
C11      C      0.114700000000     0.946000000000     0.471450000000     0          
C12      C      0.154600000000     0.881000000000     0.511270000000     0          
C13      C      0.932600000000     0.822800000000     0.511010000000     0          
C14      C      0.732000000000     0.806500000000     0.619140000000     0          
C15      C      0.401900000000     0.105700000000     0.411220000000     0          
C16      C      0.788900000000     0.816500000000     0.606710000000     0          
C17      C      0.357100000000     0.066000000000     0.423520000000     0          
C18      C      0.037100000000     0.953500000000     0.472220000000     0          
H1       H      0.011000000000     0.977000000000     0.464400000000     0          
C19      C      0.335100000000     0.995600000000     0.421550000000     0          
H2       H      0.348300000000     0.969500000000     0.412700000000     0          
C20      C      0.271600000000     0.928900000000     0.469530000000     0          
C21      C      0.266900000000     0.876800000000     0.496020000000     0          
H3       H      0.316700000000     0.865100000000     0.495100000000     0          
C22      C      0.230000000000     0.863000000000     0.509830000000     0          
C23      C      0.895000000000     0.807800000000     0.524610000000     0          
H4       H      0.849100000000     0.784700000000     0.524300000000     0          
C24      C      0.989900000000     0.867500000000     0.568160000000     0          
C25      C      0.141300000000     0.911800000000     0.540210000000     0          
C26      C      0.338800000000     0.104600000000     0.436600000000     0          
H5       H      0.355300000000     0.153000000000     0.437900000000     0          
C27      C      0.030200000000     0.875600000000     0.553280000000     0          
C28      C      0.155500000000     0.973600000000     0.457760000000     0          
C29      C      0.098600000000     0.905300000000     0.553770000000     0          
H6       H      0.117700000000     0.921700000000     0.563100000000     0          
C30      C      0.296300000000     0.072000000000     0.447720000000     0          
H7       H      0.281900000000     0.098200000000     0.456400000000     0          
C31      C      0.832400000000     0.758200000000     0.602300000000     0          
H8       H      0.831100000000     0.714000000000     0.607800000000     0          
C32      C      0.291400000000     0.962000000000     0.433240000000     0          
H9       H      0.274300000000     0.913800000000     0.432100000000     0          
C33      C      0.275500000000     0.999900000000     0.445700000000     0          
C34      C      0.838200000000     0.890100000000     0.585770000000     0          
H10      H      0.843100000000     0.935000000000     0.580600000000     0          
C35      C      0.877400000000     0.828700000000     0.581120000000     0          
C36      C      0.790300000000     0.882900000000     0.598620000000     0          
H11      H      0.760100000000     0.922100000000     0.601600000000     0          
C37      C      0.877900000000     0.765900000000     0.589660000000     0          
H12      H      0.909500000000     0.727400000000     0.586900000000     0          
C38      C      0.884100000000     0.814400000000     0.553250000000     0          
C39      C      0.583500000000     0.900800000000     0.661690000000     0          
C40      C      0.603800000000     0.955400000000     0.674490000000     0          
H13      H      0.559400000000     0.975200000000     0.679000000000     0          
H14      H      0.632700000000     0.995000000000     0.670200000000     0          
H15      H      0.631800000000     0.930400000000     0.682300000000     0          
C1       C      0.134800000000     0.637200000000     0.223980000000     0          
Cl1      Cl     0.034380000000     0.855020000000     0.255430000000     0          
Zr2      Zr     0.117790000000     0.179850000000     0.125040000000     0          
C2       C      0.157800000000     0.520000000000     0.266330000000     0          
Cl2      Cl     0.209010000000     0.525940000000     0.208580000000     0          
Cl3      Cl     0.069250000000     0.471680000000     0.225580000000     0          
O1       O      0.081410000000     0.270030000000     0.112840000000     0          
Cl4      Cl     0.193490000000     0.843260000000     0.265230000000     0          
O2       O      0.331420000000     0.352270000000     0.352450000000     0          
O3       O      0.971370000000     0.355050000000     0.108790000000     0          
O4       O      0.989730000000     0.025980000000     0.125760000000     0          
O5       O      0.410390000000     0.311100000000     0.334380000000     0          
O6       O      0.111400000000     0.055800000000     0.126770000000     0          
O7       O      0.257000000000     0.624600000000     0.302790000000     0          
O8       O      0.036400000000     0.927000000000     0.196490000000     0          
O9       O      0.088200000000     0.199100000000     0.082810000000     0          
O10      O      0.171000000000     0.412300000000     0.281350000000     0          
O11      O      0.172900000000     0.148800000000     0.103120000000     0          
O12      O      0.136500000000     0.736400000000     0.169240000000     0          
N1       N      0.086500000000     0.829300000000     0.182900000000     0          
C3       C      0.116600000000     0.714100000000     0.224580000000     0          
C4       C      0.110200000000     0.749300000000     0.239050000000     0          
C5       C      0.175000000000     0.748500000000     0.265100000000     0          
C6       C      0.145000000000     0.712400000000     0.252290000000     0          
N2       N      0.215800000000     0.518500000000     0.291840000000     0          
C7       C      0.106000000000     0.751500000000     0.210600000000     0          
C8       C      0.168000000000     0.596100000000     0.265820000000     0          
C9       C      0.146100000000     0.635400000000     0.252110000000     0          
C10      C      0.077000000000     0.824500000000     0.211300000000     0          
C11      C      0.196000000000     0.635300000000     0.278550000000     0          
C12      C      0.131000000000     0.595400000000     0.238730000000     0          
C13      C      0.072800000000     0.817400000000     0.238990000000     0          
C14      C      0.056500000000     0.018000000000     0.130860000000     0          
C15      C      0.355700000000     0.348100000000     0.338780000000     0          
C16      C      0.066500000000     0.961100000000     0.143290000000     0          
C17      C      0.316000000000     0.392900000000     0.326480000000     0          
C18      C      0.203500000000     0.712900000000     0.277780000000     0          
H1       H      0.227000000000     0.739000000000     0.285600000000     0          
C19      C      0.245600000000     0.414900000000     0.328450000000     0          
H2       H      0.219500000000     0.401700000000     0.337300000000     0          
C20      C      0.178900000000     0.478400000000     0.280470000000     0          
C21      C      0.126800000000     0.483100000000     0.253980000000     0          
H3       H      0.115100000000     0.433300000000     0.254900000000     0          
C22      C      0.113000000000     0.520000000000     0.240170000000     0          
C23      C      0.057800000000     0.855000000000     0.225390000000     0          
H4       H      0.034700000000     0.900900000000     0.225700000000     0          
C24      C      0.117500000000     0.760100000000     0.181840000000     0          
C25      C      0.161800000000     0.608700000000     0.209790000000     0          
C26      C      0.354600000000     0.411200000000     0.313400000000     0          
H5       H      0.403000000000     0.394700000000     0.312100000000     0          
C27      C      0.125600000000     0.719800000000     0.196720000000     0          
C28      C      0.223600000000     0.594500000000     0.292240000000     0          
C29      C      0.155300000000     0.651400000000     0.196230000000     0          
H6       H      0.171700000000     0.632300000000     0.186900000000     0          
C30      C      0.322000000000     0.453700000000     0.302280000000     0          
H7       H      0.348200000000     0.468100000000     0.293600000000     0          
C31      C      0.008200000000     0.917600000000     0.147700000000     0          
H8       H      0.964000000000     0.918900000000     0.142200000000     0          
C32      C      0.212000000000     0.458600000000     0.316760000000     0          
H9       H      0.163800000000     0.475700000000     0.317900000000     0          
C33      C      0.249900000000     0.474500000000     0.304300000000     0          
C34      C      0.140100000000     0.911800000000     0.164230000000     0          
H10      H      0.185000000000     0.906900000000     0.169400000000     0          
C35      C      0.078700000000     0.872600000000     0.168880000000     0          
C36      C      0.132900000000     0.959700000000     0.151380000000     0          
H11      H      0.172100000000     0.989900000000     0.148400000000     0          
C37      C      0.015900000000     0.872100000000     0.160340000000     0          
H12      H      0.977400000000     0.840500000000     0.163100000000     0          
C38      C      0.064400000000     0.865900000000     0.196750000000     0          
C39      C      0.150800000000     0.166500000000     0.088310000000     0          
C40      C      0.205400000000     0.146200000000     0.075510000000     0          
H13      H      0.225200000000     0.190600000000     0.071000000000     0          
H14      H      0.245000000000     0.117300000000     0.079800000000     0          
H15      H      0.180400000000     0.118200000000     0.067700000000     0          
C1       C      0.612800000000     0.884800000000     0.973980000000     0          
Cl1      Cl     0.394980000000     0.784380000000     0.005430000000     0          
Zr2      Zr     0.070150000000     0.867790000000     0.875040000000     0          
C2       C      0.730000000000     0.907800000000     0.016330000000     0          
Cl2      Cl     0.724060000000     0.959010000000     0.958580000000     0          
Cl3      Cl     0.778320000000     0.819250000000     0.975580000000     0          
O1       O      0.979970000000     0.831410000000     0.862840000000     0          
Cl4      Cl     0.406740000000     0.943490000000     0.015230000000     0          
O2       O      0.897730000000     0.081420000000     0.102450000000     0          
O3       O      0.894950000000     0.721370000000     0.858790000000     0          
O4       O      0.224020000000     0.739730000000     0.875760000000     0          
O5       O      0.938900000000     0.160390000000     0.084380000000     0          
O6       O      0.194200000000     0.861400000000     0.876770000000     0          
O7       O      0.625400000000     0.007000000000     0.052790000000     0          
O8       O      0.323000000000     0.786400000000     0.946490000000     0          
O9       O      0.050900000000     0.838200000000     0.832810000000     0          
O10      O      0.837700000000     0.921000000000     0.031350000000     0          
O11      O      0.101200000000     0.922900000000     0.853120000000     0          
O12      O      0.513600000000     0.886500000000     0.919240000000     0          
N1       N      0.420700000000     0.836500000000     0.932900000000     0          
C3       C      0.535900000000     0.866600000000     0.974580000000     0          
C4       C      0.500700000000     0.860200000000     0.989050000000     0          
C5       C      0.501500000000     0.925000000000     0.015100000000     0          
C6       C      0.537600000000     0.895000000000     0.002290000000     0          
N2       N      0.731500000000     0.965800000000     0.041840000000     0          
C7       C      0.498500000000     0.856000000000     0.960600000000     0          
C8       C      0.653900000000     0.918000000000     0.015820000000     0          
C9       C      0.614600000000     0.896100000000     0.002110000000     0          
C10      C      0.425500000000     0.827000000000     0.961300000000     0          
C11      C      0.614700000000     0.946000000000     0.028550000000     0          
C12      C      0.654600000000     0.881000000000     0.988730000000     0          
C13      C      0.432600000000     0.822800000000     0.988990000000     0          
C14      C      0.232000000000     0.806500000000     0.880860000000     0          
C15      C      0.901900000000     0.105700000000     0.088780000000     0          
C16      C      0.288900000000     0.816500000000     0.893290000000     0          
C17      C      0.857100000000     0.066000000000     0.076480000000     0          
C18      C      0.537100000000     0.953500000000     0.027780000000     0          
H1       H      0.511000000000     0.977000000000     0.035600000000     0          
C19      C      0.835100000000     0.995600000000     0.078450000000     0          
H2       H      0.848300000000     0.969500000000     0.087300000000     0          
C20      C      0.771600000000     0.928900000000     0.030470000000     0          
C21      C      0.766900000000     0.876800000000     0.003980000000     0          
H3       H      0.816700000000     0.865100000000     0.004900000000     0          
C22      C      0.730000000000     0.863000000000     0.990170000000     0          
C23      C      0.395000000000     0.807800000000     0.975390000000     0          
H4       H      0.349100000000     0.784700000000     0.975700000000     0          
C24      C      0.489900000000     0.867500000000     0.931840000000     0          
C25      C      0.641300000000     0.911800000000     0.959790000000     0          
C26      C      0.838800000000     0.104600000000     0.063400000000     0          
H5       H      0.855300000000     0.153000000000     0.062100000000     0          
C27      C      0.530200000000     0.875600000000     0.946720000000     0          
C28      C      0.655500000000     0.973600000000     0.042240000000     0          
C29      C      0.598600000000     0.905300000000     0.946230000000     0          
H6       H      0.617700000000     0.921700000000     0.936900000000     0          
C30      C      0.796300000000     0.072000000000     0.052280000000     0          
H7       H      0.781900000000     0.098200000000     0.043600000000     0          
C31      C      0.332400000000     0.758200000000     0.897700000000     0          
H8       H      0.331100000000     0.714000000000     0.892200000000     0          
C32      C      0.791400000000     0.962000000000     0.066760000000     0          
H9       H      0.774300000000     0.913800000000     0.067900000000     0          
C33      C      0.775500000000     0.999900000000     0.054300000000     0          
C34      C      0.338200000000     0.890100000000     0.914230000000     0          
H10      H      0.343100000000     0.935000000000     0.919400000000     0          
C35      C      0.377400000000     0.828700000000     0.918880000000     0          
C36      C      0.290300000000     0.882900000000     0.901380000000     0          
H11      H      0.260100000000     0.922100000000     0.898400000000     0          
C37      C      0.377900000000     0.765900000000     0.910340000000     0          
H12      H      0.409500000000     0.727400000000     0.913100000000     0          
C38      C      0.384100000000     0.814400000000     0.946750000000     0          
C39      C      0.083500000000     0.900800000000     0.838310000000     0          
C40      C      0.103800000000     0.955400000000     0.825510000000     0          
H13      H      0.059400000000     0.975200000000     0.821000000000     0          
H14      H      0.132700000000     0.995000000000     0.829800000000     0          
H15      H      0.131800000000     0.930400000000     0.817700000000     0          
C1       C      0.365200000000     0.362800000000     0.723980000000     0          
Cl1      Cl     0.465620000000     0.144980000000     0.755430000000     0          
Zr2      Zr     0.382210000000     0.820150000000     0.625040000000     0          
C2       C      0.342200000000     0.480000000000     0.766330000000     0          
Cl2      Cl     0.290990000000     0.474060000000     0.708580000000     0          
Cl3      Cl     0.430750000000     0.528320000000     0.725580000000     0          
O1       O      0.418590000000     0.729970000000     0.612840000000     0          
Cl4      Cl     0.306510000000     0.156740000000     0.765230000000     0          
O2       O      0.168580000000     0.647730000000     0.852450000000     0          
O3       O      0.528630000000     0.644950000000     0.608790000000     0          
O4       O      0.510270000000     0.974020000000     0.625760000000     0          
O5       O      0.089610000000     0.688900000000     0.834380000000     0          
O6       O      0.388600000000     0.944200000000     0.626770000000     0          
O7       O      0.243000000000     0.375400000000     0.802790000000     0          
O8       O      0.463600000000     0.073000000000     0.696490000000     0          
O9       O      0.411800000000     0.800900000000     0.582810000000     0          
O10      O      0.329000000000     0.587700000000     0.781350000000     0          
O11      O      0.327100000000     0.851200000000     0.603120000000     0          
O12      O      0.363500000000     0.263600000000     0.669240000000     0          
N1       N      0.413500000000     0.170700000000     0.682900000000     0          
C3       C      0.383400000000     0.285900000000     0.724580000000     0          
C4       C      0.389800000000     0.250700000000     0.739050000000     0          
C5       C      0.325000000000     0.251500000000     0.765100000000     0          
C6       C      0.355000000000     0.287600000000     0.752290000000     0          
N2       N      0.284200000000     0.481500000000     0.791840000000     0          
C7       C      0.394000000000     0.248500000000     0.710600000000     0          
C8       C      0.332000000000     0.403900000000     0.765820000000     0          
C9       C      0.353900000000     0.364600000000     0.752110000000     0          
C10      C      0.423000000000     0.175500000000     0.711300000000     0          
C11      C      0.304000000000     0.364700000000     0.778550000000     0          
C12      C      0.369000000000     0.404600000000     0.738730000000     0          
C13      C      0.427200000000     0.182600000000     0.738990000000     0          
C14      C      0.443500000000     0.982000000000     0.630860000000     0          
C15      C      0.144300000000     0.651900000000     0.838780000000     0          
C16      C      0.433500000000     0.038900000000     0.643290000000     0          
C17      C      0.184000000000     0.607100000000     0.826480000000     0          
C18      C      0.296500000000     0.287100000000     0.777780000000     0          
H1       H      0.273000000000     0.261000000000     0.785600000000     0          
C19      C      0.254400000000     0.585100000000     0.828450000000     0          
H2       H      0.280500000000     0.598300000000     0.837300000000     0          
C20      C      0.321100000000     0.521600000000     0.780470000000     0          
C21      C      0.373200000000     0.516900000000     0.753980000000     0          
H3       H      0.384900000000     0.566700000000     0.754900000000     0          
C22      C      0.387000000000     0.480000000000     0.740170000000     0          
C23      C      0.442200000000     0.145000000000     0.725390000000     0          
H4       H      0.465300000000     0.099100000000     0.725700000000     0          
C24      C      0.382500000000     0.239900000000     0.681840000000     0          
C25      C      0.338200000000     0.391300000000     0.709790000000     0          
C26      C      0.145400000000     0.588800000000     0.813400000000     0          
H5       H      0.097000000000     0.605300000000     0.812100000000     0          
C27      C      0.374400000000     0.280200000000     0.696720000000     0          
C28      C      0.276400000000     0.405500000000     0.792240000000     0          
C29      C      0.344700000000     0.348600000000     0.696230000000     0          
H6       H      0.328300000000     0.367700000000     0.686900000000     0          
C30      C      0.178000000000     0.546300000000     0.802280000000     0          
H7       H      0.151800000000     0.531900000000     0.793600000000     0          
C31      C      0.491800000000     0.082400000000     0.647700000000     0          
H8       H      0.536000000000     0.081100000000     0.642200000000     0          
C32      C      0.288000000000     0.541400000000     0.816760000000     0          
H9       H      0.336200000000     0.524300000000     0.817900000000     0          
C33      C      0.250100000000     0.525500000000     0.804300000000     0          
C34      C      0.359900000000     0.088200000000     0.664230000000     0          
H10      H      0.315000000000     0.093100000000     0.669400000000     0          
C35      C      0.421300000000     0.127400000000     0.668880000000     0          
C36      C      0.367100000000     0.040300000000     0.651380000000     0          
H11      H      0.327900000000     0.010100000000     0.648400000000     0          
C37      C      0.484100000000     0.127900000000     0.660340000000     0          
H12      H      0.522600000000     0.159500000000     0.663100000000     0          
C38      C      0.435600000000     0.134100000000     0.696750000000     0          
C39      C      0.349200000000     0.833500000000     0.588310000000     0          
C40      C      0.294600000000     0.853800000000     0.575510000000     0          
H13      H      0.274800000000     0.809400000000     0.571000000000     0          
H14      H      0.255000000000     0.882700000000     0.579800000000     0          
H15      H      0.319600000000     0.881800000000     0.567700000000     0          
C1       C      0.887200000000     0.115200000000     0.473980000000     0          
Cl1      Cl     0.105020000000     0.215620000000     0.505430000000     0          
Zr2      Zr     0.429850000000     0.132210000000     0.375040000000     0          
C2       C      0.770000000000     0.092200000000     0.516330000000     0          
Cl2      Cl     0.775940000000     0.040990000000     0.458580000000     0          
Cl3      Cl     0.721680000000     0.180750000000     0.475580000000     0          
O1       O      0.520030000000     0.168590000000     0.362840000000     0          
Cl4      Cl     0.093260000000     0.056510000000     0.515230000000     0          
O2       O      0.602270000000     0.918580000000     0.602450000000     0          
O3       O      0.605050000000     0.278630000000     0.358790000000     0          
O4       O      0.275980000000     0.260270000000     0.375760000000     0          
O5       O      0.561100000000     0.839610000000     0.584380000000     0          
O6       O      0.305800000000     0.138600000000     0.376770000000     0          
O7       O      0.874600000000     0.993000000000     0.552790000000     0          
O8       O      0.177000000000     0.213600000000     0.446490000000     0          
O9       O      0.449100000000     0.161800000000     0.332810000000     0          
O10      O      0.662300000000     0.079000000000     0.531350000000     0          
O11      O      0.398800000000     0.077100000000     0.353120000000     0          
O12      O      0.986400000000     0.113500000000     0.419240000000     0          
N1       N      0.079300000000     0.163500000000     0.432900000000     0          
C3       C      0.964100000000     0.133400000000     0.474580000000     0          
C4       C      0.999300000000     0.139800000000     0.489050000000     0          
C5       C      0.998500000000     0.075000000000     0.515100000000     0          
C6       C      0.962400000000     0.105000000000     0.502290000000     0          
N2       N      0.768500000000     0.034200000000     0.541840000000     0          
C7       C      0.001500000000     0.144000000000     0.460600000000     0          
C8       C      0.846100000000     0.082000000000     0.515820000000     0          
C9       C      0.885400000000     0.103900000000     0.502110000000     0          
C10      C      0.074500000000     0.173000000000     0.461300000000     0          
C11      C      0.885300000000     0.054000000000     0.528550000000     0          
C12      C      0.845400000000     0.119000000000     0.488730000000     0          
C13      C      0.067400000000     0.177200000000     0.488990000000     0          
C14      C      0.268000000000     0.193500000000     0.380860000000     0          
C15      C      0.598100000000     0.894300000000     0.588780000000     0          
C16      C      0.211100000000     0.183500000000     0.393290000000     0          
C17      C      0.642900000000     0.934000000000     0.576480000000     0          
C18      C      0.962900000000     0.046500000000     0.527780000000     0          
H1       H      0.989000000000     0.023000000000     0.535600000000     0          
C19      C      0.664900000000     0.004400000000     0.578450000000     0          
H2       H      0.651700000000     0.030500000000     0.587300000000     0          
C20      C      0.728400000000     0.071100000000     0.530470000000     0          
C21      C      0.733100000000     0.123200000000     0.503980000000     0          
H3       H      0.683300000000     0.134900000000     0.504900000000     0          
C22      C      0.770000000000     0.137000000000     0.490170000000     0          
C23      C      0.105000000000     0.192200000000     0.475390000000     0          
H4       H      0.150900000000     0.215300000000     0.475700000000     0          
C24      C      0.010100000000     0.132500000000     0.431840000000     0          
C25      C      0.858700000000     0.088200000000     0.459790000000     0          
C26      C      0.661200000000     0.895400000000     0.563400000000     0          
H5       H      0.644700000000     0.847000000000     0.562100000000     0          
C27      C      0.969800000000     0.124400000000     0.446720000000     0          
C28      C      0.844500000000     0.026400000000     0.542240000000     0          
C29      C      0.901400000000     0.094700000000     0.446230000000     0          
H6       H      0.882300000000     0.078300000000     0.436900000000     0          
C30      C      0.703700000000     0.928000000000     0.552280000000     0          
H7       H      0.718100000000     0.901800000000     0.543600000000     0          
C31      C      0.167600000000     0.241800000000     0.397700000000     0          
H8       H      0.168900000000     0.286000000000     0.392200000000     0          
C32      C      0.708600000000     0.038000000000     0.566760000000     0          
H9       H      0.725700000000     0.086200000000     0.567900000000     0          
C33      C      0.724500000000     0.000100000000     0.554300000000     0          
C34      C      0.161800000000     0.109900000000     0.414230000000     0          
H10      H      0.156900000000     0.065000000000     0.419400000000     0          
C35      C      0.122600000000     0.171300000000     0.418880000000     0          
C36      C      0.209700000000     0.117100000000     0.401380000000     0          
H11      H      0.239900000000     0.077900000000     0.398400000000     0          
C37      C      0.122100000000     0.234100000000     0.410340000000     0          
H12      H      0.090500000000     0.272600000000     0.413100000000     0          
C38      C      0.115900000000     0.185600000000     0.446750000000     0          
C39      C      0.416500000000     0.099200000000     0.338310000000     0          
C40      C      0.396200000000     0.044600000000     0.325510000000     0          
H13      H      0.440600000000     0.024800000000     0.321000000000     0          
H14      H      0.367300000000     0.005000000000     0.329800000000     0          
H15      H      0.368200000000     0.069600000000     0.317700000000     0          


