data_NABVAQ

_audit_creation_method RASPA-1.0
_audit_creation_date 2020-11-2
_audit_author_name 'Rocio Bueno-Perez'

_cell_length_a    28.1333
_cell_length_b    28.1333
_cell_length_c    69.411
_cell_angle_alpha 90
_cell_angle_beta  90
_cell_angle_gamma 120
_cell_volume      47577.4

_symmetry_cell_setting          trigonal
_symmetry_space_group_name_Hall 'P 1'
_symmetry_space_group_name_H-M  'P 1'
_symmetry_Int_Tables_number     1

_symmetry_equiv_pos_as_xyz 'x,y,z'

loop_
_atom_site_label
_atom_site_type_symbol
_atom_site_fract_x
_atom_site_fract_y
_atom_site_fract_z
_atom_site_charge
O1       O      0.543390000000     0.179560000000     0.103130000000     0          
O2       O      0.516330000000     0.207400000000     0.129650000000     0          
O3       O      0.911670000000     0.006460000000     0.827380000000     0          
O4       O      0.669660000000     0.245880000000     0.069340000000     0          
C5       C      0.512040000000     0.171670000000     0.117280000000     0          
C6       C      0.464340000000     0.114510000000     0.119850000000     0          
C7       C      0.426530000000     0.103500000000     0.133850000000     0          
H8       H      0.430300000000     0.131900000000     0.141800000000     0          
C9       C      0.381800000000     0.050500000000     0.136720000000     0          
H10      H      0.356400000000     0.043800000000     0.146400000000     0          
C11      C      0.376200000000     0.008700000000     0.125100000000     0          
C12      C      0.417200000000     0.019100000000     0.111720000000     0          
H13      H      0.415800000000     0.990200000000     0.104800000000     0          
C14      C      0.460200000000     0.072400000000     0.108640000000     0          
H15      H      0.486000000000     0.079300000000     0.099100000000     0          
C16      C      0.332000000000     0.953400000000     0.126840000000     0          
C17      C      0.292400000000     0.908900000000     0.128830000000     0          
C18      C      0.243400000000     0.856300000000     0.130090000000     0          
C19      C      0.204700000000     0.847200000000     0.143730000000     0          
C20      C      0.211800000000     0.886100000000     0.158050000000     0          
H21      H      0.244100000000     0.919900000000     0.157800000000     0          
C22      C      0.175400000000     0.877300000000     0.171720000000     0          
C23      C      0.236200000000     0.815400000000     0.116440000000     0          
C24      C      0.276900000000     0.822300000000     0.101860000000     0          
H25      H      0.310100000000     0.855200000000     0.101600000000     0          
C26      C      0.268700000000     0.783700000000     0.088840000000     0          
C27      C      0.693600000000     0.219500000000     0.034070000000     0          
H28      H      0.659400000000     0.196300000000     0.039500000000     0          
C29      C      0.709900000000     0.207400000000     0.016220000000     0          
H30      H      0.685900000000     0.174900000000     0.009900000000     0          
C31      C      0.851800000000     0.235500000000     0.949830000000     0          
C32      C      0.886500000000     0.289900000000     0.956900000000     0          
H33      H      0.875400000000     0.301600000000     0.967700000000     0          
C34      C      0.932400000000     0.322800000000     0.948900000000     0          
H35      H      0.953400000000     0.358300000000     0.953600000000     0          
C36      C      0.951400000000     0.305400000000     0.933000000000     0          
H37      H      0.986200000000     0.329100000000     0.928100000000     0          
C38      C      0.921500000000     0.256700000000     0.924600000000     0          
H39      H      0.935100000000     0.248500000000     0.913600000000     0          
C40      C      0.869500000000     0.216800000000     0.931900000000     0          
C41      C      0.938700000000     0.146800000000     0.872340000000     0          
H42      H      0.961100000000     0.181700000000     0.877400000000     0          
C43      C      0.957900000000     0.126700000000     0.856910000000     0          
H44      H      0.993000000000     0.148800000000     0.852000000000     0          
H45      H      0.518250000000     0.576590000000     0.849830000000     0          
H46      H      0.635430000000     0.458230000000     0.744570000000     0          
Zr47     Zr     0.708160000000     0.291840000000     0.136150000000     0          
O48      O      0.713580000000     0.286420000000     0.103660000000     0          
C49      C      0.717420000000     0.282580000000     0.061900000000     0          
C50      C      0.731750000000     0.268250000000     0.042960000000     0          
C51      C      0.758800000000     0.241200000000     0.008200000000     0          
C52      C      0.773200000000     0.226800000000     0.989100000000     0          
C53      C      0.785000000000     0.215000000000     0.975200000000     0          
C54      C      0.801200000000     0.198800000000     0.957160000000     0          
C55      C      0.833800000000     0.166200000000     0.924860000000     0          
C56      C      0.852500000000     0.147500000000     0.907710000000     0          
C57      C      0.866400000000     0.133600000000     0.895200000000     0          
C58      C      0.886400000000     0.113600000000     0.879650000000     0          
C59      C      0.944680000000     0.055320000000     0.833280000000     0          
C60      C      0.924980000000     0.075020000000     0.849410000000     0          
Zr61     Zr     0.625140000000     0.250280000000     0.095050000000     0          
O62      O      0.631640000000     0.263280000000     0.124230000000     0          
O63      O      0.666670000000     0.333330000000     0.089240000000     0          
O64      O      0.666670000000     0.333330000000     0.150470000000     0          
O1       O      0.820440000000     0.363830000000     0.103130000000     0          
O2       O      0.792600000000     0.308930000000     0.129650000000     0          
O3       O      0.993540000000     0.905210000000     0.827380000000     0          
O4       O      0.754120000000     0.423780000000     0.069340000000     0          
C5       C      0.828330000000     0.340370000000     0.117280000000     0          
C6       C      0.885490000000     0.349830000000     0.119850000000     0          
C7       C      0.896500000000     0.323030000000     0.133850000000     0          
H8       H      0.868100000000     0.298400000000     0.141800000000     0          
C9       C      0.949500000000     0.331300000000     0.136720000000     0          
H10      H      0.956200000000     0.312600000000     0.146400000000     0          
C11      C      0.991300000000     0.367500000000     0.125100000000     0          
C12      C      0.980900000000     0.398100000000     0.111720000000     0          
H13      H      0.009800000000     0.425600000000     0.104800000000     0          
C14      C      0.927600000000     0.387800000000     0.108640000000     0          
H15      H      0.920700000000     0.406700000000     0.099100000000     0          
C16      C      0.046600000000     0.378600000000     0.126840000000     0          
C17      C      0.091100000000     0.383500000000     0.128830000000     0          
C18      C      0.143700000000     0.387100000000     0.130090000000     0          
C19      C      0.152800000000     0.357500000000     0.143730000000     0          
C20      C      0.113900000000     0.325700000000     0.158050000000     0          
H21      H      0.080100000000     0.324200000000     0.157800000000     0          
C22      C      0.122700000000     0.298100000000     0.171720000000     0          
C23      C      0.184600000000     0.420800000000     0.116440000000     0          
C24      C      0.177700000000     0.454600000000     0.101860000000     0          
H25      H      0.144800000000     0.454900000000     0.101600000000     0          
C26      C      0.216300000000     0.485000000000     0.088840000000     0          
C27      C      0.780500000000     0.474100000000     0.034070000000     0          
H28      H      0.803700000000     0.463100000000     0.039500000000     0          
C29      C      0.792600000000     0.502500000000     0.016220000000     0          
H30      H      0.825100000000     0.511000000000     0.009900000000     0          
C31      C      0.764500000000     0.616300000000     0.949830000000     0          
C32      C      0.710100000000     0.596600000000     0.956900000000     0          
H33      H      0.698400000000     0.573800000000     0.967700000000     0          
C34      C      0.677200000000     0.609600000000     0.948900000000     0          
H35      H      0.641700000000     0.595100000000     0.953600000000     0          
C36      C      0.694600000000     0.646000000000     0.933000000000     0          
H37      H      0.670900000000     0.657100000000     0.928100000000     0          
C38      C      0.743300000000     0.664800000000     0.924600000000     0          
H39      H      0.751500000000     0.686600000000     0.913600000000     0          
C40      C      0.783200000000     0.652700000000     0.931900000000     0          
C41      C      0.853200000000     0.791900000000     0.872340000000     0          
H42      H      0.818300000000     0.779400000000     0.877400000000     0          
C43      C      0.873300000000     0.831200000000     0.856910000000     0          
H44      H      0.851200000000     0.844200000000     0.852000000000     0          
H45      H      0.423410000000     0.941660000000     0.849830000000     0          
H46      H      0.541770000000     0.177200000000     0.744570000000     0          
Zr47     Zr     0.708160000000     0.416320000000     0.136150000000     0          
O48      O      0.713580000000     0.427160000000     0.103660000000     0          
C49      C      0.717420000000     0.434840000000     0.061900000000     0          
C50      C      0.731750000000     0.463500000000     0.042960000000     0          
C51      C      0.758800000000     0.517600000000     0.008200000000     0          
C52      C      0.773200000000     0.546400000000     0.989100000000     0          
C53      C      0.785000000000     0.570000000000     0.975200000000     0          
C54      C      0.801200000000     0.602400000000     0.957160000000     0          
C55      C      0.833800000000     0.667600000000     0.924860000000     0          
C56      C      0.852500000000     0.705000000000     0.907710000000     0          
C57      C      0.866400000000     0.732800000000     0.895200000000     0          
C58      C      0.886400000000     0.772800000000     0.879650000000     0          
C59      C      0.944680000000     0.889360000000     0.833280000000     0          
C60      C      0.924980000000     0.849960000000     0.849410000000     0          
Zr61     Zr     0.749720000000     0.374860000000     0.095050000000     0          
O62      O      0.736720000000     0.368360000000     0.124230000000     0          
O1       O      0.636170000000     0.456610000000     0.103130000000     0          
O2       O      0.691070000000     0.483670000000     0.129650000000     0          
O3       O      0.094790000000     0.088330000000     0.827380000000     0          
O4       O      0.576220000000     0.330340000000     0.069340000000     0          
C5       C      0.659630000000     0.487960000000     0.117280000000     0          
C6       C      0.650170000000     0.535660000000     0.119850000000     0          
C7       C      0.676970000000     0.573470000000     0.133850000000     0          
H8       H      0.701600000000     0.569700000000     0.141800000000     0          
C9       C      0.668700000000     0.618200000000     0.136720000000     0          
H10      H      0.687400000000     0.643600000000     0.146400000000     0          
C11      C      0.632500000000     0.623800000000     0.125100000000     0          
C12      C      0.601900000000     0.582800000000     0.111720000000     0          
H13      H      0.574400000000     0.584200000000     0.104800000000     0          
C14      C      0.612200000000     0.539800000000     0.108640000000     0          
H15      H      0.593300000000     0.514000000000     0.099100000000     0          
C16      C      0.621400000000     0.668000000000     0.126840000000     0          
C17      C      0.616500000000     0.707600000000     0.128830000000     0          
C18      C      0.612900000000     0.756600000000     0.130090000000     0          
C19      C      0.642500000000     0.795300000000     0.143730000000     0          
C20      C      0.674300000000     0.788200000000     0.158050000000     0          
H21      H      0.675800000000     0.755900000000     0.157800000000     0          
C22      C      0.701900000000     0.824600000000     0.171720000000     0          
C23      C      0.579200000000     0.763800000000     0.116440000000     0          
C24      C      0.545400000000     0.723100000000     0.101860000000     0          
H25      H      0.545100000000     0.689900000000     0.101600000000     0          
C26      C      0.515000000000     0.731300000000     0.088840000000     0          
C27      C      0.525900000000     0.306400000000     0.034070000000     0          
H28      H      0.536900000000     0.340600000000     0.039500000000     0          
C29      C      0.497500000000     0.290100000000     0.016220000000     0          
H30      H      0.489000000000     0.314100000000     0.009900000000     0          
C31      C      0.383700000000     0.148200000000     0.949830000000     0          
C32      C      0.403400000000     0.113500000000     0.956900000000     0          
H33      H      0.426200000000     0.124600000000     0.967700000000     0          
C34      C      0.390400000000     0.067600000000     0.948900000000     0          
H35      H      0.404900000000     0.046600000000     0.953600000000     0          
C36      C      0.354000000000     0.048600000000     0.933000000000     0          
H37      H      0.342900000000     0.013800000000     0.928100000000     0          
C38      C      0.335200000000     0.078500000000     0.924600000000     0          
H39      H      0.313400000000     0.064900000000     0.913600000000     0          
C40      C      0.347300000000     0.130500000000     0.931900000000     0          
C41      C      0.208100000000     0.061300000000     0.872340000000     0          
H42      H      0.220600000000     0.038900000000     0.877400000000     0          
C43      C      0.168800000000     0.042100000000     0.856910000000     0          
H44      H      0.155800000000     0.007000000000     0.852000000000     0          
H45      H      0.058340000000     0.481750000000     0.849830000000     0          
H46      H      0.822800000000     0.364570000000     0.744570000000     0          
Zr47     Zr     0.583680000000     0.291840000000     0.136150000000     0          
O48      O      0.572840000000     0.286420000000     0.103660000000     0          
C49      C      0.565160000000     0.282580000000     0.061900000000     0          
C50      C      0.536500000000     0.268250000000     0.042960000000     0          
C51      C      0.482400000000     0.241200000000     0.008200000000     0          
C52      C      0.453600000000     0.226800000000     0.989100000000     0          
C53      C      0.430000000000     0.215000000000     0.975200000000     0          
C54      C      0.397600000000     0.198800000000     0.957160000000     0          
C55      C      0.332400000000     0.166200000000     0.924860000000     0          
C56      C      0.295000000000     0.147500000000     0.907710000000     0          
C57      C      0.267200000000     0.133600000000     0.895200000000     0          
C58      C      0.227200000000     0.113600000000     0.879650000000     0          
C59      C      0.110640000000     0.055320000000     0.833280000000     0          
C60      C      0.150040000000     0.075020000000     0.849410000000     0          
Zr61     Zr     0.625140000000     0.374860000000     0.095050000000     0          
O62      O      0.631640000000     0.368360000000     0.124230000000     0          
O1       O      0.179560000000     0.543390000000     0.896870000000     0          
O2       O      0.207400000000     0.516330000000     0.870350000000     0          
O3       O      0.006460000000     0.911670000000     0.172620000000     0          
O4       O      0.245880000000     0.669660000000     0.930660000000     0          
C5       C      0.171670000000     0.512040000000     0.882720000000     0          
C6       C      0.114510000000     0.464340000000     0.880150000000     0          
C7       C      0.103500000000     0.426530000000     0.866150000000     0          
H8       H      0.131900000000     0.430300000000     0.858200000000     0          
C9       C      0.050500000000     0.381800000000     0.863280000000     0          
H10      H      0.043800000000     0.356400000000     0.853600000000     0          
C11      C      0.008700000000     0.376200000000     0.874900000000     0          
C12      C      0.019100000000     0.417200000000     0.888280000000     0          
H13      H      0.990200000000     0.415800000000     0.895200000000     0          
C14      C      0.072400000000     0.460200000000     0.891360000000     0          
H15      H      0.079300000000     0.486000000000     0.900900000000     0          
C16      C      0.953400000000     0.332000000000     0.873160000000     0          
C17      C      0.908900000000     0.292400000000     0.871170000000     0          
C18      C      0.856300000000     0.243400000000     0.869910000000     0          
C19      C      0.847200000000     0.204700000000     0.856270000000     0          
C20      C      0.886100000000     0.211800000000     0.841950000000     0          
H21      H      0.919900000000     0.244100000000     0.842200000000     0          
C22      C      0.877300000000     0.175400000000     0.828280000000     0          
C23      C      0.815400000000     0.236200000000     0.883560000000     0          
C24      C      0.822300000000     0.276900000000     0.898140000000     0          
H25      H      0.855200000000     0.310100000000     0.898400000000     0          
C26      C      0.783700000000     0.268700000000     0.911160000000     0          
C27      C      0.219500000000     0.693600000000     0.965930000000     0          
H28      H      0.196300000000     0.659400000000     0.960500000000     0          
C29      C      0.207400000000     0.709900000000     0.983780000000     0          
H30      H      0.174900000000     0.685900000000     0.990100000000     0          
C31      C      0.235500000000     0.851800000000     0.050170000000     0          
C32      C      0.289900000000     0.886500000000     0.043100000000     0          
H33      H      0.301600000000     0.875400000000     0.032300000000     0          
C34      C      0.322800000000     0.932400000000     0.051100000000     0          
H35      H      0.358300000000     0.953400000000     0.046400000000     0          
C36      C      0.305400000000     0.951400000000     0.067000000000     0          
H37      H      0.329100000000     0.986200000000     0.071900000000     0          
C38      C      0.256700000000     0.921500000000     0.075400000000     0          
H39      H      0.248500000000     0.935100000000     0.086400000000     0          
C40      C      0.216800000000     0.869500000000     0.068100000000     0          
C41      C      0.146800000000     0.938700000000     0.127660000000     0          
H42      H      0.181700000000     0.961100000000     0.122600000000     0          
C43      C      0.126700000000     0.957900000000     0.143090000000     0          
H44      H      0.148800000000     0.993000000000     0.148000000000     0          
H45      H      0.576590000000     0.518250000000     0.150170000000     0          
H46      H      0.458230000000     0.635430000000     0.255430000000     0          
Zr47     Zr     0.291840000000     0.708160000000     0.863850000000     0          
O48      O      0.286420000000     0.713580000000     0.896340000000     0          
C49      C      0.282580000000     0.717420000000     0.938100000000     0          
C50      C      0.268250000000     0.731750000000     0.957040000000     0          
C51      C      0.241200000000     0.758800000000     0.991800000000     0          
C52      C      0.226800000000     0.773200000000     0.010900000000     0          
C53      C      0.215000000000     0.785000000000     0.024800000000     0          
C54      C      0.198800000000     0.801200000000     0.042840000000     0          
C55      C      0.166200000000     0.833800000000     0.075140000000     0          
C56      C      0.147500000000     0.852500000000     0.092290000000     0          
C57      C      0.133600000000     0.866400000000     0.104800000000     0          
C58      C      0.113600000000     0.886400000000     0.120350000000     0          
C59      C      0.055320000000     0.944680000000     0.166720000000     0          
C60      C      0.075020000000     0.924980000000     0.150590000000     0          
Zr61     Zr     0.250280000000     0.625140000000     0.904950000000     0          
O62      O      0.263280000000     0.631640000000     0.875770000000     0          
O63      O      0.333330000000     0.666670000000     0.910760000000     0          
O64      O      0.333330000000     0.666670000000     0.849530000000     0          
O1       O      0.456610000000     0.636170000000     0.896870000000     0          
O2       O      0.483670000000     0.691070000000     0.870350000000     0          
O3       O      0.088330000000     0.094790000000     0.172620000000     0          
O4       O      0.330340000000     0.576220000000     0.930660000000     0          
C5       C      0.487960000000     0.659630000000     0.882720000000     0          
C6       C      0.535660000000     0.650170000000     0.880150000000     0          
C7       C      0.573470000000     0.676970000000     0.866150000000     0          
H8       H      0.569700000000     0.701600000000     0.858200000000     0          
C9       C      0.618200000000     0.668700000000     0.863280000000     0          
H10      H      0.643600000000     0.687400000000     0.853600000000     0          
C11      C      0.623800000000     0.632500000000     0.874900000000     0          
C12      C      0.582800000000     0.601900000000     0.888280000000     0          
H13      H      0.584200000000     0.574400000000     0.895200000000     0          
C14      C      0.539800000000     0.612200000000     0.891360000000     0          
H15      H      0.514000000000     0.593300000000     0.900900000000     0          
C16      C      0.668000000000     0.621400000000     0.873160000000     0          
C17      C      0.707600000000     0.616500000000     0.871170000000     0          
C18      C      0.756600000000     0.612900000000     0.869910000000     0          
C19      C      0.795300000000     0.642500000000     0.856270000000     0          
C20      C      0.788200000000     0.674300000000     0.841950000000     0          
H21      H      0.755900000000     0.675800000000     0.842200000000     0          
C22      C      0.824600000000     0.701900000000     0.828280000000     0          
C23      C      0.763800000000     0.579200000000     0.883560000000     0          
C24      C      0.723100000000     0.545400000000     0.898140000000     0          
H25      H      0.689900000000     0.545100000000     0.898400000000     0          
C26      C      0.731300000000     0.515000000000     0.911160000000     0          
C27      C      0.306400000000     0.525900000000     0.965930000000     0          
H28      H      0.340600000000     0.536900000000     0.960500000000     0          
C29      C      0.290100000000     0.497500000000     0.983780000000     0          
H30      H      0.314100000000     0.489000000000     0.990100000000     0          
C31      C      0.148200000000     0.383700000000     0.050170000000     0          
C32      C      0.113500000000     0.403400000000     0.043100000000     0          
H33      H      0.124600000000     0.426200000000     0.032300000000     0          
C34      C      0.067600000000     0.390400000000     0.051100000000     0          
H35      H      0.046600000000     0.404900000000     0.046400000000     0          
C36      C      0.048600000000     0.354000000000     0.067000000000     0          
H37      H      0.013800000000     0.342900000000     0.071900000000     0          
C38      C      0.078500000000     0.335200000000     0.075400000000     0          
H39      H      0.064900000000     0.313400000000     0.086400000000     0          
C40      C      0.130500000000     0.347300000000     0.068100000000     0          
C41      C      0.061300000000     0.208100000000     0.127660000000     0          
H42      H      0.038900000000     0.220600000000     0.122600000000     0          
C43      C      0.042100000000     0.168800000000     0.143090000000     0          
H44      H      0.007000000000     0.155800000000     0.148000000000     0          
H45      H      0.481750000000     0.058340000000     0.150170000000     0          
H46      H      0.364570000000     0.822800000000     0.255430000000     0          
Zr47     Zr     0.291840000000     0.583680000000     0.863850000000     0          
O48      O      0.286420000000     0.572840000000     0.896340000000     0          
C49      C      0.282580000000     0.565160000000     0.938100000000     0          
C50      C      0.268250000000     0.536500000000     0.957040000000     0          
C51      C      0.241200000000     0.482400000000     0.991800000000     0          
C52      C      0.226800000000     0.453600000000     0.010900000000     0          
C53      C      0.215000000000     0.430000000000     0.024800000000     0          
C54      C      0.198800000000     0.397600000000     0.042840000000     0          
C55      C      0.166200000000     0.332400000000     0.075140000000     0          
C56      C      0.147500000000     0.295000000000     0.092290000000     0          
C57      C      0.133600000000     0.267200000000     0.104800000000     0          
C58      C      0.113600000000     0.227200000000     0.120350000000     0          
C59      C      0.055320000000     0.110640000000     0.166720000000     0          
C60      C      0.075020000000     0.150040000000     0.150590000000     0          
Zr61     Zr     0.374860000000     0.625140000000     0.904950000000     0          
O62      O      0.368360000000     0.631640000000     0.875770000000     0          
O1       O      0.363830000000     0.820440000000     0.896870000000     0          
O2       O      0.308930000000     0.792600000000     0.870350000000     0          
O3       O      0.905210000000     0.993540000000     0.172620000000     0          
O4       O      0.423780000000     0.754120000000     0.930660000000     0          
C5       C      0.340370000000     0.828330000000     0.882720000000     0          
C6       C      0.349830000000     0.885490000000     0.880150000000     0          
C7       C      0.323030000000     0.896500000000     0.866150000000     0          
H8       H      0.298400000000     0.868100000000     0.858200000000     0          
C9       C      0.331300000000     0.949500000000     0.863280000000     0          
H10      H      0.312600000000     0.956200000000     0.853600000000     0          
C11      C      0.367500000000     0.991300000000     0.874900000000     0          
C12      C      0.398100000000     0.980900000000     0.888280000000     0          
H13      H      0.425600000000     0.009800000000     0.895200000000     0          
C14      C      0.387800000000     0.927600000000     0.891360000000     0          
H15      H      0.406700000000     0.920700000000     0.900900000000     0          
C16      C      0.378600000000     0.046600000000     0.873160000000     0          
C17      C      0.383500000000     0.091100000000     0.871170000000     0          
C18      C      0.387100000000     0.143700000000     0.869910000000     0          
C19      C      0.357500000000     0.152800000000     0.856270000000     0          
C20      C      0.325700000000     0.113900000000     0.841950000000     0          
H21      H      0.324200000000     0.080100000000     0.842200000000     0          
C22      C      0.298100000000     0.122700000000     0.828280000000     0          
C23      C      0.420800000000     0.184600000000     0.883560000000     0          
C24      C      0.454600000000     0.177700000000     0.898140000000     0          
H25      H      0.454900000000     0.144800000000     0.898400000000     0          
C26      C      0.485000000000     0.216300000000     0.911160000000     0          
C27      C      0.474100000000     0.780500000000     0.965930000000     0          
H28      H      0.463100000000     0.803700000000     0.960500000000     0          
C29      C      0.502500000000     0.792600000000     0.983780000000     0          
H30      H      0.511000000000     0.825100000000     0.990100000000     0          
C31      C      0.616300000000     0.764500000000     0.050170000000     0          
C32      C      0.596600000000     0.710100000000     0.043100000000     0          
H33      H      0.573800000000     0.698400000000     0.032300000000     0          
C34      C      0.609600000000     0.677200000000     0.051100000000     0          
H35      H      0.595100000000     0.641700000000     0.046400000000     0          
C36      C      0.646000000000     0.694600000000     0.067000000000     0          
H37      H      0.657100000000     0.670900000000     0.071900000000     0          
C38      C      0.664800000000     0.743300000000     0.075400000000     0          
H39      H      0.686600000000     0.751500000000     0.086400000000     0          
C40      C      0.652700000000     0.783200000000     0.068100000000     0          
C41      C      0.791900000000     0.853200000000     0.127660000000     0          
H42      H      0.779400000000     0.818300000000     0.122600000000     0          
C43      C      0.831200000000     0.873300000000     0.143090000000     0          
H44      H      0.844200000000     0.851200000000     0.148000000000     0          
H45      H      0.941660000000     0.423410000000     0.150170000000     0          
H46      H      0.177200000000     0.541770000000     0.255430000000     0          
Zr47     Zr     0.416320000000     0.708160000000     0.863850000000     0          
O48      O      0.427160000000     0.713580000000     0.896340000000     0          
C49      C      0.434840000000     0.717420000000     0.938100000000     0          
C50      C      0.463500000000     0.731750000000     0.957040000000     0          
C51      C      0.517600000000     0.758800000000     0.991800000000     0          
C52      C      0.546400000000     0.773200000000     0.010900000000     0          
C53      C      0.570000000000     0.785000000000     0.024800000000     0          
C54      C      0.602400000000     0.801200000000     0.042840000000     0          
C55      C      0.667600000000     0.833800000000     0.075140000000     0          
C56      C      0.705000000000     0.852500000000     0.092290000000     0          
C57      C      0.732800000000     0.866400000000     0.104800000000     0          
C58      C      0.772800000000     0.886400000000     0.120350000000     0          
C59      C      0.889360000000     0.944680000000     0.166720000000     0          
C60      C      0.849960000000     0.924980000000     0.150590000000     0          
Zr61     Zr     0.374860000000     0.749720000000     0.904950000000     0          
O62      O      0.368360000000     0.736720000000     0.875770000000     0          
O1       O      0.456610000000     0.820440000000     0.896870000000     0          
O2       O      0.483670000000     0.792600000000     0.870350000000     0          
O3       O      0.088330000000     0.993540000000     0.172620000000     0          
O4       O      0.330340000000     0.754120000000     0.930660000000     0          
C5       C      0.487960000000     0.828330000000     0.882720000000     0          
C6       C      0.535660000000     0.885490000000     0.880150000000     0          
C7       C      0.573470000000     0.896500000000     0.866150000000     0          
H8       H      0.569700000000     0.868100000000     0.858200000000     0          
C9       C      0.618200000000     0.949500000000     0.863280000000     0          
H10      H      0.643600000000     0.956200000000     0.853600000000     0          
C11      C      0.623800000000     0.991300000000     0.874900000000     0          
C12      C      0.582800000000     0.980900000000     0.888280000000     0          
H13      H      0.584200000000     0.009800000000     0.895200000000     0          
C14      C      0.539800000000     0.927600000000     0.891360000000     0          
H15      H      0.514000000000     0.920700000000     0.900900000000     0          
C16      C      0.668000000000     0.046600000000     0.873160000000     0          
C17      C      0.707600000000     0.091100000000     0.871170000000     0          
C18      C      0.756600000000     0.143700000000     0.869910000000     0          
C19      C      0.795300000000     0.152800000000     0.856270000000     0          
C20      C      0.788200000000     0.113900000000     0.841950000000     0          
H21      H      0.755900000000     0.080100000000     0.842200000000     0          
C22      C      0.824600000000     0.122700000000     0.828280000000     0          
C23      C      0.763800000000     0.184600000000     0.883560000000     0          
C24      C      0.723100000000     0.177700000000     0.898140000000     0          
H25      H      0.689900000000     0.144800000000     0.898400000000     0          
C26      C      0.731300000000     0.216300000000     0.911160000000     0          
C27      C      0.306400000000     0.780500000000     0.965930000000     0          
H28      H      0.340600000000     0.803700000000     0.960500000000     0          
C29      C      0.290100000000     0.792600000000     0.983780000000     0          
H30      H      0.314100000000     0.825100000000     0.990100000000     0          
C31      C      0.148200000000     0.764500000000     0.050170000000     0          
C32      C      0.113500000000     0.710100000000     0.043100000000     0          
H33      H      0.124600000000     0.698400000000     0.032300000000     0          
C34      C      0.067600000000     0.677200000000     0.051100000000     0          
H35      H      0.046600000000     0.641700000000     0.046400000000     0          
C36      C      0.048600000000     0.694600000000     0.067000000000     0          
H37      H      0.013800000000     0.670900000000     0.071900000000     0          
C38      C      0.078500000000     0.743300000000     0.075400000000     0          
H39      H      0.064900000000     0.751500000000     0.086400000000     0          
C40      C      0.130500000000     0.783200000000     0.068100000000     0          
C41      C      0.061300000000     0.853200000000     0.127660000000     0          
H42      H      0.038900000000     0.818300000000     0.122600000000     0          
C43      C      0.042100000000     0.873300000000     0.143090000000     0          
H44      H      0.007000000000     0.851200000000     0.148000000000     0          
H45      H      0.481750000000     0.423410000000     0.150170000000     0          
H46      H      0.364570000000     0.541770000000     0.255430000000     0          
O1       O      0.179560000000     0.636170000000     0.896870000000     0          
O2       O      0.207400000000     0.691070000000     0.870350000000     0          
O3       O      0.006460000000     0.094790000000     0.172620000000     0          
O4       O      0.245880000000     0.576220000000     0.930660000000     0          
C5       C      0.171670000000     0.659630000000     0.882720000000     0          
C6       C      0.114510000000     0.650170000000     0.880150000000     0          
C7       C      0.103500000000     0.676970000000     0.866150000000     0          
H8       H      0.131900000000     0.701600000000     0.858200000000     0          
C9       C      0.050500000000     0.668700000000     0.863280000000     0          
H10      H      0.043800000000     0.687400000000     0.853600000000     0          
C11      C      0.008700000000     0.632500000000     0.874900000000     0          
C12      C      0.019100000000     0.601900000000     0.888280000000     0          
H13      H      0.990200000000     0.574400000000     0.895200000000     0          
C14      C      0.072400000000     0.612200000000     0.891360000000     0          
H15      H      0.079300000000     0.593300000000     0.900900000000     0          
C16      C      0.953400000000     0.621400000000     0.873160000000     0          
C17      C      0.908900000000     0.616500000000     0.871170000000     0          
C18      C      0.856300000000     0.612900000000     0.869910000000     0          
C19      C      0.847200000000     0.642500000000     0.856270000000     0          
C20      C      0.886100000000     0.674300000000     0.841950000000     0          
H21      H      0.919900000000     0.675800000000     0.842200000000     0          
C22      C      0.877300000000     0.701900000000     0.828280000000     0          
C23      C      0.815400000000     0.579200000000     0.883560000000     0          
C24      C      0.822300000000     0.545400000000     0.898140000000     0          
H25      H      0.855200000000     0.545100000000     0.898400000000     0          
C26      C      0.783700000000     0.515000000000     0.911160000000     0          
C27      C      0.219500000000     0.525900000000     0.965930000000     0          
H28      H      0.196300000000     0.536900000000     0.960500000000     0          
C29      C      0.207400000000     0.497500000000     0.983780000000     0          
H30      H      0.174900000000     0.489000000000     0.990100000000     0          
C31      C      0.235500000000     0.383700000000     0.050170000000     0          
C32      C      0.289900000000     0.403400000000     0.043100000000     0          
H33      H      0.301600000000     0.426200000000     0.032300000000     0          
C34      C      0.322800000000     0.390400000000     0.051100000000     0          
H35      H      0.358300000000     0.404900000000     0.046400000000     0          
C36      C      0.305400000000     0.354000000000     0.067000000000     0          
H37      H      0.329100000000     0.342900000000     0.071900000000     0          
C38      C      0.256700000000     0.335200000000     0.075400000000     0          
H39      H      0.248500000000     0.313400000000     0.086400000000     0          
C40      C      0.216800000000     0.347300000000     0.068100000000     0          
C41      C      0.146800000000     0.208100000000     0.127660000000     0          
H42      H      0.181700000000     0.220600000000     0.122600000000     0          
C43      C      0.126700000000     0.168800000000     0.143090000000     0          
H44      H      0.148800000000     0.155800000000     0.148000000000     0          
H45      H      0.576590000000     0.058340000000     0.150170000000     0          
H46      H      0.458230000000     0.822800000000     0.255430000000     0          
O1       O      0.363830000000     0.543390000000     0.896870000000     0          
O2       O      0.308930000000     0.516330000000     0.870350000000     0          
O3       O      0.905210000000     0.911670000000     0.172620000000     0          
O4       O      0.423780000000     0.669660000000     0.930660000000     0          
C5       C      0.340370000000     0.512040000000     0.882720000000     0          
C6       C      0.349830000000     0.464340000000     0.880150000000     0          
C7       C      0.323030000000     0.426530000000     0.866150000000     0          
H8       H      0.298400000000     0.430300000000     0.858200000000     0          
C9       C      0.331300000000     0.381800000000     0.863280000000     0          
H10      H      0.312600000000     0.356400000000     0.853600000000     0          
C11      C      0.367500000000     0.376200000000     0.874900000000     0          
C12      C      0.398100000000     0.417200000000     0.888280000000     0          
H13      H      0.425600000000     0.415800000000     0.895200000000     0          
C14      C      0.387800000000     0.460200000000     0.891360000000     0          
H15      H      0.406700000000     0.486000000000     0.900900000000     0          
C16      C      0.378600000000     0.332000000000     0.873160000000     0          
C17      C      0.383500000000     0.292400000000     0.871170000000     0          
C18      C      0.387100000000     0.243400000000     0.869910000000     0          
C19      C      0.357500000000     0.204700000000     0.856270000000     0          
C20      C      0.325700000000     0.211800000000     0.841950000000     0          
H21      H      0.324200000000     0.244100000000     0.842200000000     0          
C22      C      0.298100000000     0.175400000000     0.828280000000     0          
C23      C      0.420800000000     0.236200000000     0.883560000000     0          
C24      C      0.454600000000     0.276900000000     0.898140000000     0          
H25      H      0.454900000000     0.310100000000     0.898400000000     0          
C26      C      0.485000000000     0.268700000000     0.911160000000     0          
C27      C      0.474100000000     0.693600000000     0.965930000000     0          
H28      H      0.463100000000     0.659400000000     0.960500000000     0          
C29      C      0.502500000000     0.709900000000     0.983780000000     0          
H30      H      0.511000000000     0.685900000000     0.990100000000     0          
C31      C      0.616300000000     0.851800000000     0.050170000000     0          
C32      C      0.596600000000     0.886500000000     0.043100000000     0          
H33      H      0.573800000000     0.875400000000     0.032300000000     0          
C34      C      0.609600000000     0.932400000000     0.051100000000     0          
H35      H      0.595100000000     0.953400000000     0.046400000000     0          
C36      C      0.646000000000     0.951400000000     0.067000000000     0          
H37      H      0.657100000000     0.986200000000     0.071900000000     0          
C38      C      0.664800000000     0.921500000000     0.075400000000     0          
H39      H      0.686600000000     0.935100000000     0.086400000000     0          
C40      C      0.652700000000     0.869500000000     0.068100000000     0          
C41      C      0.791900000000     0.938700000000     0.127660000000     0          
H42      H      0.779400000000     0.961100000000     0.122600000000     0          
C43      C      0.831200000000     0.957900000000     0.143090000000     0          
H44      H      0.844200000000     0.993000000000     0.148000000000     0          
H45      H      0.941660000000     0.518250000000     0.150170000000     0          
H46      H      0.177200000000     0.635430000000     0.255430000000     0          
O1       O      0.820440000000     0.456610000000     0.103130000000     0          
O2       O      0.792600000000     0.483670000000     0.129650000000     0          
O3       O      0.993540000000     0.088330000000     0.827380000000     0          
O4       O      0.754120000000     0.330340000000     0.069340000000     0          
C5       C      0.828330000000     0.487960000000     0.117280000000     0          
C6       C      0.885490000000     0.535660000000     0.119850000000     0          
C7       C      0.896500000000     0.573470000000     0.133850000000     0          
H8       H      0.868100000000     0.569700000000     0.141800000000     0          
C9       C      0.949500000000     0.618200000000     0.136720000000     0          
H10      H      0.956200000000     0.643600000000     0.146400000000     0          
C11      C      0.991300000000     0.623800000000     0.125100000000     0          
C12      C      0.980900000000     0.582800000000     0.111720000000     0          
H13      H      0.009800000000     0.584200000000     0.104800000000     0          
C14      C      0.927600000000     0.539800000000     0.108640000000     0          
H15      H      0.920700000000     0.514000000000     0.099100000000     0          
C16      C      0.046600000000     0.668000000000     0.126840000000     0          
C17      C      0.091100000000     0.707600000000     0.128830000000     0          
C18      C      0.143700000000     0.756600000000     0.130090000000     0          
C19      C      0.152800000000     0.795300000000     0.143730000000     0          
C20      C      0.113900000000     0.788200000000     0.158050000000     0          
H21      H      0.080100000000     0.755900000000     0.157800000000     0          
C22      C      0.122700000000     0.824600000000     0.171720000000     0          
C23      C      0.184600000000     0.763800000000     0.116440000000     0          
C24      C      0.177700000000     0.723100000000     0.101860000000     0          
H25      H      0.144800000000     0.689900000000     0.101600000000     0          
C26      C      0.216300000000     0.731300000000     0.088840000000     0          
C27      C      0.780500000000     0.306400000000     0.034070000000     0          
H28      H      0.803700000000     0.340600000000     0.039500000000     0          
C29      C      0.792600000000     0.290100000000     0.016220000000     0          
H30      H      0.825100000000     0.314100000000     0.009900000000     0          
C31      C      0.764500000000     0.148200000000     0.949830000000     0          
C32      C      0.710100000000     0.113500000000     0.956900000000     0          
H33      H      0.698400000000     0.124600000000     0.967700000000     0          
C34      C      0.677200000000     0.067600000000     0.948900000000     0          
H35      H      0.641700000000     0.046600000000     0.953600000000     0          
C36      C      0.694600000000     0.048600000000     0.933000000000     0          
H37      H      0.670900000000     0.013800000000     0.928100000000     0          
C38      C      0.743300000000     0.078500000000     0.924600000000     0          
H39      H      0.751500000000     0.064900000000     0.913600000000     0          
C40      C      0.783200000000     0.130500000000     0.931900000000     0          
C41      C      0.853200000000     0.061300000000     0.872340000000     0          
H42      H      0.818300000000     0.038900000000     0.877400000000     0          
C43      C      0.873300000000     0.042100000000     0.856910000000     0          
H44      H      0.851200000000     0.007000000000     0.852000000000     0          
H45      H      0.423410000000     0.481750000000     0.849830000000     0          
H46      H      0.541770000000     0.364570000000     0.744570000000     0          
O1       O      0.543390000000     0.363830000000     0.103130000000     0          
O2       O      0.516330000000     0.308930000000     0.129650000000     0          
O3       O      0.911670000000     0.905210000000     0.827380000000     0          
O4       O      0.669660000000     0.423780000000     0.069340000000     0          
C5       C      0.512040000000     0.340370000000     0.117280000000     0          
C6       C      0.464340000000     0.349830000000     0.119850000000     0          
C7       C      0.426530000000     0.323030000000     0.133850000000     0          
H8       H      0.430300000000     0.298400000000     0.141800000000     0          
C9       C      0.381800000000     0.331300000000     0.136720000000     0          
H10      H      0.356400000000     0.312600000000     0.146400000000     0          
C11      C      0.376200000000     0.367500000000     0.125100000000     0          
C12      C      0.417200000000     0.398100000000     0.111720000000     0          
H13      H      0.415800000000     0.425600000000     0.104800000000     0          
C14      C      0.460200000000     0.387800000000     0.108640000000     0          
H15      H      0.486000000000     0.406700000000     0.099100000000     0          
C16      C      0.332000000000     0.378600000000     0.126840000000     0          
C17      C      0.292400000000     0.383500000000     0.128830000000     0          
C18      C      0.243400000000     0.387100000000     0.130090000000     0          
C19      C      0.204700000000     0.357500000000     0.143730000000     0          
C20      C      0.211800000000     0.325700000000     0.158050000000     0          
H21      H      0.244100000000     0.324200000000     0.157800000000     0          
C22      C      0.175400000000     0.298100000000     0.171720000000     0          
C23      C      0.236200000000     0.420800000000     0.116440000000     0          
C24      C      0.276900000000     0.454600000000     0.101860000000     0          
H25      H      0.310100000000     0.454900000000     0.101600000000     0          
C26      C      0.268700000000     0.485000000000     0.088840000000     0          
C27      C      0.693600000000     0.474100000000     0.034070000000     0          
H28      H      0.659400000000     0.463100000000     0.039500000000     0          
C29      C      0.709900000000     0.502500000000     0.016220000000     0          
H30      H      0.685900000000     0.511000000000     0.009900000000     0          
C31      C      0.851800000000     0.616300000000     0.949830000000     0          
C32      C      0.886500000000     0.596600000000     0.956900000000     0          
H33      H      0.875400000000     0.573800000000     0.967700000000     0          
C34      C      0.932400000000     0.609600000000     0.948900000000     0          
H35      H      0.953400000000     0.595100000000     0.953600000000     0          
C36      C      0.951400000000     0.646000000000     0.933000000000     0          
H37      H      0.986200000000     0.657100000000     0.928100000000     0          
C38      C      0.921500000000     0.664800000000     0.924600000000     0          
H39      H      0.935100000000     0.686600000000     0.913600000000     0          
C40      C      0.869500000000     0.652700000000     0.931900000000     0          
C41      C      0.938700000000     0.791900000000     0.872340000000     0          
H42      H      0.961100000000     0.779400000000     0.877400000000     0          
C43      C      0.957900000000     0.831200000000     0.856910000000     0          
H44      H      0.993000000000     0.844200000000     0.852000000000     0          
H45      H      0.518250000000     0.941660000000     0.849830000000     0          
H46      H      0.635430000000     0.177200000000     0.744570000000     0          
O1       O      0.636170000000     0.179560000000     0.103130000000     0          
O2       O      0.691070000000     0.207400000000     0.129650000000     0          
O3       O      0.094790000000     0.006460000000     0.827380000000     0          
O4       O      0.576220000000     0.245880000000     0.069340000000     0          
C5       C      0.659630000000     0.171670000000     0.117280000000     0          
C6       C      0.650170000000     0.114510000000     0.119850000000     0          
C7       C      0.676970000000     0.103500000000     0.133850000000     0          
H8       H      0.701600000000     0.131900000000     0.141800000000     0          
C9       C      0.668700000000     0.050500000000     0.136720000000     0          
H10      H      0.687400000000     0.043800000000     0.146400000000     0          
C11      C      0.632500000000     0.008700000000     0.125100000000     0          
C12      C      0.601900000000     0.019100000000     0.111720000000     0          
H13      H      0.574400000000     0.990200000000     0.104800000000     0          
C14      C      0.612200000000     0.072400000000     0.108640000000     0          
H15      H      0.593300000000     0.079300000000     0.099100000000     0          
C16      C      0.621400000000     0.953400000000     0.126840000000     0          
C17      C      0.616500000000     0.908900000000     0.128830000000     0          
C18      C      0.612900000000     0.856300000000     0.130090000000     0          
C19      C      0.642500000000     0.847200000000     0.143730000000     0          
C20      C      0.674300000000     0.886100000000     0.158050000000     0          
H21      H      0.675800000000     0.919900000000     0.157800000000     0          
C22      C      0.701900000000     0.877300000000     0.171720000000     0          
C23      C      0.579200000000     0.815400000000     0.116440000000     0          
C24      C      0.545400000000     0.822300000000     0.101860000000     0          
H25      H      0.545100000000     0.855200000000     0.101600000000     0          
C26      C      0.515000000000     0.783700000000     0.088840000000     0          
C27      C      0.525900000000     0.219500000000     0.034070000000     0          
H28      H      0.536900000000     0.196300000000     0.039500000000     0          
C29      C      0.497500000000     0.207400000000     0.016220000000     0          
H30      H      0.489000000000     0.174900000000     0.009900000000     0          
C31      C      0.383700000000     0.235500000000     0.949830000000     0          
C32      C      0.403400000000     0.289900000000     0.956900000000     0          
H33      H      0.426200000000     0.301600000000     0.967700000000     0          
C34      C      0.390400000000     0.322800000000     0.948900000000     0          
H35      H      0.404900000000     0.358300000000     0.953600000000     0          
C36      C      0.354000000000     0.305400000000     0.933000000000     0          
H37      H      0.342900000000     0.329100000000     0.928100000000     0          
C38      C      0.335200000000     0.256700000000     0.924600000000     0          
H39      H      0.313400000000     0.248500000000     0.913600000000     0          
C40      C      0.347300000000     0.216800000000     0.931900000000     0          
C41      C      0.208100000000     0.146800000000     0.872340000000     0          
H42      H      0.220600000000     0.181700000000     0.877400000000     0          
C43      C      0.168800000000     0.126700000000     0.856910000000     0          
H44      H      0.155800000000     0.148800000000     0.852000000000     0          
H45      H      0.058340000000     0.576590000000     0.849830000000     0          
H46      H      0.822800000000     0.458230000000     0.744570000000     0          
O1       O      0.210056666667     0.512893333333     0.436463333333     0          
O2       O      0.182996666667     0.540733333333     0.462983333333     0          
O3       O      0.578336666667     0.339793333333     0.160713333333     0          
O4       O      0.336326666667     0.579213333333     0.402673333333     0          
C5       C      0.178706666667     0.505003333333     0.450613333333     0          
C6       C      0.131006666667     0.447843333333     0.453183333333     0          
C7       C      0.093196666667     0.436833333333     0.467183333333     0          
H8       H      0.096966666667     0.465233333333     0.475133333333     0          
C9       C      0.048466666667     0.383833333333     0.470053333333     0          
H10      H      0.023066666667     0.377133333333     0.479733333333     0          
C11      C      0.042866666667     0.342033333333     0.458433333333     0          
C12      C      0.083866666667     0.352433333333     0.445053333333     0          
H13      H      0.082466666667     0.323533333333     0.438133333333     0          
C14      C      0.126866666667     0.405733333333     0.441973333333     0          
H15      H      0.152666666667     0.412633333333     0.432433333333     0          
C16      C      0.998666666667     0.286733333333     0.460173333333     0          
C17      C      0.959066666667     0.242233333333     0.462163333333     0          
C18      C      0.910066666667     0.189633333333     0.463423333333     0          
C19      C      0.871366666667     0.180533333333     0.477063333333     0          
C20      C      0.878466666667     0.219433333333     0.491383333333     0          
H21      H      0.910766666667     0.253233333333     0.491133333333     0          
C22      C      0.842066666667     0.210633333333     0.505053333333     0          
C23      C      0.902866666667     0.148733333333     0.449773333333     0          
C24      C      0.943566666667     0.155633333333     0.435193333333     0          
H25      H      0.976766666667     0.188533333333     0.434933333333     0          
C26      C      0.935366666667     0.117033333333     0.422173333333     0          
C27      C      0.360266666667     0.552833333333     0.367403333333     0          
H28      H      0.326066666667     0.529633333333     0.372833333333     0          
C29      C      0.376566666667     0.540733333333     0.349553333333     0          
H30      H      0.352566666667     0.508233333333     0.343233333333     0          
C31      C      0.518466666667     0.568833333333     0.283163333333     0          
C32      C      0.553166666667     0.623233333333     0.290233333333     0          
H33      H      0.542066666667     0.634933333333     0.301033333333     0          
C34      C      0.599066666667     0.656133333333     0.282233333333     0          
H35      H      0.620066666667     0.691633333333     0.286933333333     0          
C36      C      0.618066666667     0.638733333333     0.266333333333     0          
H37      H      0.652866666667     0.662433333333     0.261433333333     0          
C38      C      0.588166666667     0.590033333333     0.257933333333     0          
H39      H      0.601766666667     0.581833333333     0.246933333333     0          
C40      C      0.536166666667     0.550133333333     0.265233333333     0          
C41      C      0.605366666667     0.480133333333     0.205673333333     0          
H42      H      0.627766666667     0.515033333333     0.210733333333     0          
C43      C      0.624566666667     0.460033333333     0.190243333333     0          
H44      H      0.659666666667     0.482133333333     0.185333333333     0          
H45      H      0.184916666667     0.909923333333     0.183163333333     0          
H46      H      0.302096666667     0.791563333333     0.077903333333     0          
Zr47     Zr     0.374826666667     0.625173333333     0.469483333333     0          
O48      O      0.380246666667     0.619753333333     0.436993333333     0          
C49      C      0.384086666667     0.615913333333     0.395233333333     0          
C50      C      0.398416666667     0.601583333333     0.376293333333     0          
C51      C      0.425466666667     0.574533333333     0.341533333333     0          
C52      C      0.439866666667     0.560133333333     0.322433333333     0          
C53      C      0.451666666667     0.548333333333     0.308533333333     0          
C54      C      0.467866666667     0.532133333333     0.290493333333     0          
C55      C      0.500466666667     0.499533333333     0.258193333333     0          
C56      C      0.519166666667     0.480833333333     0.241043333333     0          
C57      C      0.533066666667     0.466933333333     0.228533333333     0          
C58      C      0.553066666667     0.446933333333     0.212983333333     0          
C59      C      0.611346666667     0.388653333333     0.166613333333     0          
C60      C      0.591646666667     0.408353333333     0.182743333333     0          
Zr61     Zr     0.291806666667     0.583613333333     0.428383333333     0          
O62      O      0.298306666667     0.596613333333     0.457563333333     0          
O63      O      0.333336666667     0.666663333333     0.422573333333     0          
O64      O      0.333336666667     0.666663333333     0.483803333333     0          
O1       O      0.487106666667     0.697163333333     0.436463333333     0          
O2       O      0.459266666667     0.642263333333     0.462983333333     0          
O3       O      0.660206666667     0.238543333333     0.160713333333     0          
O4       O      0.420786666667     0.757113333333     0.402673333333     0          
C5       C      0.494996666667     0.673703333333     0.450613333333     0          
C6       C      0.552156666667     0.683163333333     0.453183333333     0          
C7       C      0.563166666667     0.656363333333     0.467183333333     0          
H8       H      0.534766666667     0.631733333333     0.475133333333     0          
C9       C      0.616166666667     0.664633333333     0.470053333333     0          
H10      H      0.622866666667     0.645933333333     0.479733333333     0          
C11      C      0.657966666667     0.700833333333     0.458433333333     0          
C12      C      0.647566666667     0.731433333333     0.445053333333     0          
H13      H      0.676466666667     0.758933333333     0.438133333333     0          
C14      C      0.594266666667     0.721133333333     0.441973333333     0          
H15      H      0.587366666667     0.740033333333     0.432433333333     0          
C16      C      0.713266666667     0.711933333333     0.460173333333     0          
C17      C      0.757766666667     0.716833333333     0.462163333333     0          
C18      C      0.810366666667     0.720433333333     0.463423333333     0          
C19      C      0.819466666667     0.690833333333     0.477063333333     0          
C20      C      0.780566666667     0.659033333333     0.491383333333     0          
H21      H      0.746766666667     0.657533333333     0.491133333333     0          
C22      C      0.789366666667     0.631433333333     0.505053333333     0          
C23      C      0.851266666667     0.754133333333     0.449773333333     0          
C24      C      0.844366666667     0.787933333333     0.435193333333     0          
H25      H      0.811466666667     0.788233333333     0.434933333333     0          
C26      C      0.882966666667     0.818333333333     0.422173333333     0          
C27      C      0.447166666667     0.807433333333     0.367403333333     0          
H28      H      0.470366666667     0.796433333333     0.372833333333     0          
C29      C      0.459266666667     0.835833333333     0.349553333333     0          
H30      H      0.491766666667     0.844333333333     0.343233333333     0          
C31      C      0.431166666667     0.949633333333     0.283163333333     0          
C32      C      0.376766666667     0.929933333333     0.290233333333     0          
H33      H      0.365066666667     0.907133333333     0.301033333333     0          
C34      C      0.343866666667     0.942933333333     0.282233333333     0          
H35      H      0.308366666667     0.928433333333     0.286933333333     0          
C36      C      0.361266666667     0.979333333333     0.266333333333     0          
H37      H      0.337566666667     0.990433333333     0.261433333333     0          
C38      C      0.409966666667     0.998133333333     0.257933333333     0          
H39      H      0.418166666667     0.019933333333     0.246933333333     0          
C40      C      0.449866666667     0.986033333333     0.265233333333     0          
C41      C      0.519866666667     0.125233333333     0.205673333333     0          
H42      H      0.484966666667     0.112733333333     0.210733333333     0          
C43      C      0.539966666667     0.164533333333     0.190243333333     0          
H44      H      0.517866666667     0.177533333333     0.185333333333     0          
H45      H      0.090076666667     0.274993333333     0.183163333333     0          
H46      H      0.208436666667     0.510533333333     0.077903333333     0          
Zr47     Zr     0.374826666667     0.749653333333     0.469483333333     0          
O48      O      0.380246666667     0.760493333333     0.436993333333     0          
C49      C      0.384086666667     0.768173333333     0.395233333333     0          
C50      C      0.398416666667     0.796833333333     0.376293333333     0          
C51      C      0.425466666667     0.850933333333     0.341533333333     0          
C52      C      0.439866666667     0.879733333333     0.322433333333     0          
C53      C      0.451666666667     0.903333333333     0.308533333333     0          
C54      C      0.467866666667     0.935733333333     0.290493333333     0          
C55      C      0.500466666667     0.000933333333     0.258193333333     0          
C56      C      0.519166666667     0.038333333333     0.241043333333     0          
C57      C      0.533066666667     0.066133333333     0.228533333333     0          
C58      C      0.553066666667     0.106133333333     0.212983333333     0          
C59      C      0.611346666667     0.222693333333     0.166613333333     0          
C60      C      0.591646666667     0.183293333333     0.182743333333     0          
Zr61     Zr     0.416386666667     0.708193333333     0.428383333333     0          
O62      O      0.403386666667     0.701693333333     0.457563333333     0          
O1       O      0.302836666667     0.789943333333     0.436463333333     0          
O2       O      0.357736666667     0.817003333333     0.462983333333     0          
O3       O      0.761456666667     0.421663333333     0.160713333333     0          
O4       O      0.242886666667     0.663673333333     0.402673333333     0          
C5       C      0.326296666667     0.821293333333     0.450613333333     0          
C6       C      0.316836666667     0.868993333333     0.453183333333     0          
C7       C      0.343636666667     0.906803333333     0.467183333333     0          
H8       H      0.368266666667     0.903033333333     0.475133333333     0          
C9       C      0.335366666667     0.951533333333     0.470053333333     0          
H10      H      0.354066666667     0.976933333333     0.479733333333     0          
C11      C      0.299166666667     0.957133333333     0.458433333333     0          
C12      C      0.268566666667     0.916133333333     0.445053333333     0          
H13      H      0.241066666667     0.917533333333     0.438133333333     0          
C14      C      0.278866666667     0.873133333333     0.441973333333     0          
H15      H      0.259966666667     0.847333333333     0.432433333333     0          
C16      C      0.288066666667     0.001333333333     0.460173333333     0          
C17      C      0.283166666667     0.040933333333     0.462163333333     0          
C18      C      0.279566666667     0.089933333333     0.463423333333     0          
C19      C      0.309166666667     0.128633333333     0.477063333333     0          
C20      C      0.340966666667     0.121533333333     0.491383333333     0          
H21      H      0.342466666667     0.089233333333     0.491133333333     0          
C22      C      0.368566666667     0.157933333333     0.505053333333     0          
C23      C      0.245866666667     0.097133333333     0.449773333333     0          
C24      C      0.212066666667     0.056433333333     0.435193333333     0          
H25      H      0.211766666667     0.023233333333     0.434933333333     0          
C26      C      0.181666666667     0.064633333333     0.422173333333     0          
C27      C      0.192566666667     0.639733333333     0.367403333333     0          
H28      H      0.203566666667     0.673933333333     0.372833333333     0          
C29      C      0.164166666667     0.623433333333     0.349553333333     0          
H30      H      0.155666666667     0.647433333333     0.343233333333     0          
C31      C      0.050366666667     0.481533333333     0.283163333333     0          
C32      C      0.070066666667     0.446833333333     0.290233333333     0          
H33      H      0.092866666667     0.457933333333     0.301033333333     0          
C34      C      0.057066666667     0.400933333333     0.282233333333     0          
H35      H      0.071566666667     0.379933333333     0.286933333333     0          
C36      C      0.020666666667     0.381933333333     0.266333333333     0          
H37      H      0.009566666667     0.347133333333     0.261433333333     0          
C38      C      0.001866666667     0.411833333333     0.257933333333     0          
H39      H      0.980066666667     0.398233333333     0.246933333333     0          
C40      C      0.013966666667     0.463833333333     0.265233333333     0          
C41      C      0.874766666667     0.394633333333     0.205673333333     0          
H42      H      0.887266666667     0.372233333333     0.210733333333     0          
C43      C      0.835466666667     0.375433333333     0.190243333333     0          
H44      H      0.822466666667     0.340333333333     0.185333333333     0          
H45      H      0.725006666667     0.815083333333     0.183163333333     0          
H46      H      0.489466666667     0.697903333333     0.077903333333     0          
Zr47     Zr     0.250346666667     0.625173333333     0.469483333333     0          
O48      O      0.239506666667     0.619753333333     0.436993333333     0          
C49      C      0.231826666667     0.615913333333     0.395233333333     0          
C50      C      0.203166666667     0.601583333333     0.376293333333     0          
C51      C      0.149066666667     0.574533333333     0.341533333333     0          
C52      C      0.120266666667     0.560133333333     0.322433333333     0          
C53      C      0.096666666667     0.548333333333     0.308533333333     0          
C54      C      0.064266666667     0.532133333333     0.290493333333     0          
C55      C      0.999066666667     0.499533333333     0.258193333333     0          
C56      C      0.961666666667     0.480833333333     0.241043333333     0          
C57      C      0.933866666667     0.466933333333     0.228533333333     0          
C58      C      0.893866666667     0.446933333333     0.212983333333     0          
C59      C      0.777306666667     0.388653333333     0.166613333333     0          
C60      C      0.816706666667     0.408353333333     0.182743333333     0          
Zr61     Zr     0.291806666667     0.708193333333     0.428383333333     0          
O62      O      0.298306666667     0.701693333333     0.457563333333     0          
O1       O      0.846226666667     0.876723333333     0.230203333333     0          
O2       O      0.874066666667     0.849663333333     0.203683333333     0          
O3       O      0.673126666667     0.245003333333     0.505953333333     0          
O4       O      0.912546666667     0.002993333333     0.263993333333     0          
C5       C      0.838336666667     0.845373333333     0.216053333333     0          
C6       C      0.781176666667     0.797673333333     0.213483333333     0          
C7       C      0.770166666667     0.759863333333     0.199483333333     0          
H8       H      0.798566666667     0.763633333333     0.191533333333     0          
C9       C      0.717166666667     0.715133333333     0.196613333333     0          
H10      H      0.710466666667     0.689733333333     0.186933333333     0          
C11      C      0.675366666667     0.709533333333     0.208233333333     0          
C12      C      0.685766666667     0.750533333333     0.221613333333     0          
H13      H      0.656866666667     0.749133333333     0.228533333333     0          
C14      C      0.739066666667     0.793533333333     0.224693333333     0          
H15      H      0.745966666667     0.819333333333     0.234233333333     0          
C16      C      0.620066666667     0.665333333333     0.206493333333     0          
C17      C      0.575566666667     0.625733333333     0.204503333333     0          
C18      C      0.522966666667     0.576733333333     0.203243333333     0          
C19      C      0.513866666667     0.538033333333     0.189603333333     0          
C20      C      0.552766666667     0.545133333333     0.175283333333     0          
H21      H      0.586566666667     0.577433333333     0.175533333333     0          
C22      C      0.543966666667     0.508733333333     0.161613333333     0          
C23      C      0.482066666667     0.569533333333     0.216893333333     0          
C24      C      0.488966666667     0.610233333333     0.231473333333     0          
H25      H      0.521866666667     0.643433333333     0.231733333333     0          
C26      C      0.450366666667     0.602033333333     0.244493333333     0          
C27      C      0.886166666667     0.026933333333     0.299263333333     0          
H28      H      0.862966666667     0.992733333333     0.293833333333     0          
C29      C      0.874066666667     0.043233333333     0.317113333333     0          
H30      H      0.841566666667     0.019233333333     0.323433333333     0          
C31      C      0.902166666667     0.185133333333     0.383503333333     0          
C32      C      0.956566666667     0.219833333333     0.376433333333     0          
H33      H      0.968266666667     0.208733333333     0.365633333333     0          
C34      C      0.989466666667     0.265733333333     0.384433333333     0          
H35      H      0.024966666667     0.286733333333     0.379733333333     0          
C36      C      0.972066666667     0.284733333333     0.400333333333     0          
H37      H      0.995766666667     0.319533333333     0.405233333333     0          
C38      C      0.923366666667     0.254833333333     0.408733333333     0          
H39      H      0.915166666667     0.268433333333     0.419733333333     0          
C40      C      0.883466666667     0.202833333333     0.401433333333     0          
C41      C      0.813466666667     0.272033333333     0.460993333333     0          
H42      H      0.848366666667     0.294433333333     0.455933333333     0          
C43      C      0.793366666667     0.291233333333     0.476423333333     0          
H44      H      0.815466666667     0.326333333333     0.481333333333     0          
H45      H      0.243256666667     0.851583333333     0.483503333333     0          
H46      H      0.124896666667     0.968763333333     0.588763333333     0          
Zr47     Zr     0.958506666667     0.041493333333     0.197183333333     0          
O48      O      0.953086666667     0.046913333333     0.229673333333     0          
C49      C      0.949246666667     0.050753333333     0.271433333333     0          
C50      C      0.934916666667     0.065083333333     0.290373333333     0          
C51      C      0.907866666667     0.092133333333     0.325133333333     0          
C52      C      0.893466666667     0.106533333333     0.344233333333     0          
C53      C      0.881666666667     0.118333333333     0.358133333333     0          
C54      C      0.865466666667     0.134533333333     0.376173333333     0          
C55      C      0.832866666667     0.167133333333     0.408473333333     0          
C56      C      0.814166666667     0.185833333333     0.425623333333     0          
C57      C      0.800266666667     0.199733333333     0.438133333333     0          
C58      C      0.780266666667     0.219733333333     0.453683333333     0          
C59      C      0.721986666667     0.278013333333     0.500053333333     0          
C60      C      0.741686666667     0.258313333333     0.483923333333     0          
Zr61     Zr     0.916946666667     0.958473333333     0.238283333333     0          
O62      O      0.929946666667     0.964973333333     0.209103333333     0          
O63      O      0.999996666667     0.000003333333     0.244093333333     0          
O64      O      0.999996666667     0.000003333333     0.182863333333     0          
O1       O      0.123276666667     0.969503333333     0.230203333333     0          
O2       O      0.150336666667     0.024403333333     0.203683333333     0          
O3       O      0.754996666667     0.428123333333     0.505953333333     0          
O4       O      0.997006666667     0.909553333333     0.263993333333     0          
C5       C      0.154626666667     0.992963333333     0.216053333333     0          
C6       C      0.202326666667     0.983503333333     0.213483333333     0          
C7       C      0.240136666667     0.010303333333     0.199483333333     0          
H8       H      0.236366666667     0.034933333333     0.191533333333     0          
C9       C      0.284866666667     0.002033333333     0.196613333333     0          
H10      H      0.310266666667     0.020733333333     0.186933333333     0          
C11      C      0.290466666667     0.965833333333     0.208233333333     0          
C12      C      0.249466666667     0.935233333333     0.221613333333     0          
H13      H      0.250866666667     0.907733333333     0.228533333333     0          
C14      C      0.206466666667     0.945533333333     0.224693333333     0          
H15      H      0.180666666667     0.926633333333     0.234233333333     0          
C16      C      0.334666666667     0.954733333333     0.206493333333     0          
C17      C      0.374266666667     0.949833333333     0.204503333333     0          
C18      C      0.423266666667     0.946233333333     0.203243333333     0          
C19      C      0.461966666667     0.975833333333     0.189603333333     0          
C20      C      0.454866666667     0.007633333333     0.175283333333     0          
H21      H      0.422566666667     0.009133333333     0.175533333333     0          
C22      C      0.491266666667     0.035233333333     0.161613333333     0          
C23      C      0.430466666667     0.912533333333     0.216893333333     0          
C24      C      0.389766666667     0.878733333333     0.231473333333     0          
H25      H      0.356566666667     0.878433333333     0.231733333333     0          
C26      C      0.397966666667     0.848333333333     0.244493333333     0          
C27      C      0.973066666667     0.859233333333     0.299263333333     0          
H28      H      0.007266666667     0.870233333333     0.293833333333     0          
C29      C      0.956766666667     0.830833333333     0.317113333333     0          
H30      H      0.980766666667     0.822333333333     0.323433333333     0          
C31      C      0.814866666667     0.717033333333     0.383503333333     0          
C32      C      0.780166666667     0.736733333333     0.376433333333     0          
H33      H      0.791266666667     0.759533333333     0.365633333333     0          
C34      C      0.734266666667     0.723733333333     0.384433333333     0          
H35      H      0.713266666667     0.738233333333     0.379733333333     0          
C36      C      0.715266666667     0.687333333333     0.400333333333     0          
H37      H      0.680466666667     0.676233333333     0.405233333333     0          
C38      C      0.745166666667     0.668533333333     0.408733333333     0          
H39      H      0.731566666667     0.646733333333     0.419733333333     0          
C40      C      0.797166666667     0.680633333333     0.401433333333     0          
C41      C      0.727966666667     0.541433333333     0.460993333333     0          
H42      H      0.705566666667     0.553933333333     0.455933333333     0          
C43      C      0.708766666667     0.502133333333     0.476423333333     0          
H44      H      0.673666666667     0.489133333333     0.481333333333     0          
H45      H      0.148416666667     0.391673333333     0.483503333333     0          
H46      H      0.031236666667     0.156133333333     0.588763333333     0          
Zr47     Zr     0.958506666667     0.917013333333     0.197183333333     0          
O48      O      0.953086666667     0.906173333333     0.229673333333     0          
C49      C      0.949246666667     0.898493333333     0.271433333333     0          
C50      C      0.934916666667     0.869833333333     0.290373333333     0          
C51      C      0.907866666667     0.815733333333     0.325133333333     0          
C52      C      0.893466666667     0.786933333333     0.344233333333     0          
C53      C      0.881666666667     0.763333333333     0.358133333333     0          
C54      C      0.865466666667     0.730933333333     0.376173333333     0          
C55      C      0.832866666667     0.665733333333     0.408473333333     0          
C56      C      0.814166666667     0.628333333333     0.425623333333     0          
C57      C      0.800266666667     0.600533333333     0.438133333333     0          
C58      C      0.780266666667     0.560533333333     0.453683333333     0          
C59      C      0.721986666667     0.443973333333     0.500053333333     0          
C60      C      0.741686666667     0.483373333333     0.483923333333     0          
Zr61     Zr     0.041526666667     0.958473333333     0.238283333333     0          
O62      O      0.035026666667     0.964973333333     0.209103333333     0          
O1       O      0.030496666667     0.153773333333     0.230203333333     0          
O2       O      0.975596666667     0.125933333333     0.203683333333     0          
O3       O      0.571876666667     0.326873333333     0.505953333333     0          
O4       O      0.090446666667     0.087453333333     0.263993333333     0          
C5       C      0.007036666667     0.161663333333     0.216053333333     0          
C6       C      0.016496666667     0.218823333333     0.213483333333     0          
C7       C      0.989696666667     0.229833333333     0.199483333333     0          
H8       H      0.965066666667     0.201433333333     0.191533333333     0          
C9       C      0.997966666667     0.282833333333     0.196613333333     0          
H10      H      0.979266666667     0.289533333333     0.186933333333     0          
C11      C      0.034166666667     0.324633333333     0.208233333333     0          
C12      C      0.064766666667     0.314233333333     0.221613333333     0          
H13      H      0.092266666667     0.343133333333     0.228533333333     0          
C14      C      0.054466666667     0.260933333333     0.224693333333     0          
H15      H      0.073366666667     0.254033333333     0.234233333333     0          
C16      C      0.045266666667     0.379933333333     0.206493333333     0          
C17      C      0.050166666667     0.424433333333     0.204503333333     0          
C18      C      0.053766666667     0.477033333333     0.203243333333     0          
C19      C      0.024166666667     0.486133333333     0.189603333333     0          
C20      C      0.992366666667     0.447233333333     0.175283333333     0          
H21      H      0.990866666667     0.413433333333     0.175533333333     0          
C22      C      0.964766666667     0.456033333333     0.161613333333     0          
C23      C      0.087466666667     0.517933333333     0.216893333333     0          
C24      C      0.121266666667     0.511033333333     0.231473333333     0          
H25      H      0.121566666667     0.478133333333     0.231733333333     0          
C26      C      0.151666666667     0.549633333333     0.244493333333     0          
C27      C      0.140766666667     0.113833333333     0.299263333333     0          
H28      H      0.129766666667     0.137033333333     0.293833333333     0          
C29      C      0.169166666667     0.125933333333     0.317113333333     0          
H30      H      0.177666666667     0.158433333333     0.323433333333     0          
C31      C      0.282966666667     0.097833333333     0.383503333333     0          
C32      C      0.263266666667     0.043433333333     0.376433333333     0          
H33      H      0.240466666667     0.031733333333     0.365633333333     0          
C34      C      0.276266666667     0.010533333333     0.384433333333     0          
H35      H      0.261766666667     0.975033333333     0.379733333333     0          
C36      C      0.312666666667     0.027933333333     0.400333333333     0          
H37      H      0.323766666667     0.004233333333     0.405233333333     0          
C38      C      0.331466666667     0.076633333333     0.408733333333     0          
H39      H      0.353266666667     0.084833333333     0.419733333333     0          
C40      C      0.319366666667     0.116533333333     0.401433333333     0          
C41      C      0.458566666667     0.186533333333     0.460993333333     0          
H42      H      0.446066666667     0.151633333333     0.455933333333     0          
C43      C      0.497866666667     0.206633333333     0.476423333333     0          
H44      H      0.510866666667     0.184533333333     0.481333333333     0          
H45      H      0.608326666667     0.756743333333     0.483503333333     0          
H46      H      0.843866666667     0.875103333333     0.588763333333     0          
Zr47     Zr     0.082986666667     0.041493333333     0.197183333333     0          
O48      O      0.093826666667     0.046913333333     0.229673333333     0          
C49      C      0.101506666667     0.050753333333     0.271433333333     0          
C50      C      0.130166666667     0.065083333333     0.290373333333     0          
C51      C      0.184266666667     0.092133333333     0.325133333333     0          
C52      C      0.213066666667     0.106533333333     0.344233333333     0          
C53      C      0.236666666667     0.118333333333     0.358133333333     0          
C54      C      0.269066666667     0.134533333333     0.376173333333     0          
C55      C      0.334266666667     0.167133333333     0.408473333333     0          
C56      C      0.371666666667     0.185833333333     0.425623333333     0          
C57      C      0.399466666667     0.199733333333     0.438133333333     0          
C58      C      0.439466666667     0.219733333333     0.453683333333     0          
C59      C      0.556026666667     0.278013333333     0.500053333333     0          
C60      C      0.516626666667     0.258313333333     0.483923333333     0          
Zr61     Zr     0.041526666667     0.083053333333     0.238283333333     0          
O62      O      0.035026666667     0.070053333333     0.209103333333     0          
O1       O      0.123276666667     0.153773333333     0.230203333333     0          
O2       O      0.150336666667     0.125933333333     0.203683333333     0          
O3       O      0.754996666667     0.326873333333     0.505953333333     0          
O4       O      0.997006666667     0.087453333333     0.263993333333     0          
C5       C      0.154626666667     0.161663333333     0.216053333333     0          
C6       C      0.202326666667     0.218823333333     0.213483333333     0          
C7       C      0.240136666667     0.229833333333     0.199483333333     0          
H8       H      0.236366666667     0.201433333333     0.191533333333     0          
C9       C      0.284866666667     0.282833333333     0.196613333333     0          
H10      H      0.310266666667     0.289533333333     0.186933333333     0          
C11      C      0.290466666667     0.324633333333     0.208233333333     0          
C12      C      0.249466666667     0.314233333333     0.221613333333     0          
H13      H      0.250866666667     0.343133333333     0.228533333333     0          
C14      C      0.206466666667     0.260933333333     0.224693333333     0          
H15      H      0.180666666667     0.254033333333     0.234233333333     0          
C16      C      0.334666666667     0.379933333333     0.206493333333     0          
C17      C      0.374266666667     0.424433333333     0.204503333333     0          
C18      C      0.423266666667     0.477033333333     0.203243333333     0          
C19      C      0.461966666667     0.486133333333     0.189603333333     0          
C20      C      0.454866666667     0.447233333333     0.175283333333     0          
H21      H      0.422566666667     0.413433333333     0.175533333333     0          
C22      C      0.491266666667     0.456033333333     0.161613333333     0          
C23      C      0.430466666667     0.517933333333     0.216893333333     0          
C24      C      0.389766666667     0.511033333333     0.231473333333     0          
H25      H      0.356566666667     0.478133333333     0.231733333333     0          
C26      C      0.397966666667     0.549633333333     0.244493333333     0          
C27      C      0.973066666667     0.113833333333     0.299263333333     0          
H28      H      0.007266666667     0.137033333333     0.293833333333     0          
C29      C      0.956766666667     0.125933333333     0.317113333333     0          
H30      H      0.980766666667     0.158433333333     0.323433333333     0          
C31      C      0.814866666667     0.097833333333     0.383503333333     0          
C32      C      0.780166666667     0.043433333333     0.376433333333     0          
H33      H      0.791266666667     0.031733333333     0.365633333333     0          
C34      C      0.734266666667     0.010533333333     0.384433333333     0          
H35      H      0.713266666667     0.975033333333     0.379733333333     0          
C36      C      0.715266666667     0.027933333333     0.400333333333     0          
H37      H      0.680466666667     0.004233333333     0.405233333333     0          
C38      C      0.745166666667     0.076633333333     0.408733333333     0          
H39      H      0.731566666667     0.084833333333     0.419733333333     0          
C40      C      0.797166666667     0.116533333333     0.401433333333     0          
C41      C      0.727966666667     0.186533333333     0.460993333333     0          
H42      H      0.705566666667     0.151633333333     0.455933333333     0          
C43      C      0.708766666667     0.206633333333     0.476423333333     0          
H44      H      0.673666666667     0.184533333333     0.481333333333     0          
H45      H      0.148416666667     0.756743333333     0.483503333333     0          
H46      H      0.031236666667     0.875103333333     0.588763333333     0          
O1       O      0.846226666667     0.969503333333     0.230203333333     0          
O2       O      0.874066666667     0.024403333333     0.203683333333     0          
O3       O      0.673126666667     0.428123333333     0.505953333333     0          
O4       O      0.912546666667     0.909553333333     0.263993333333     0          
C5       C      0.838336666667     0.992963333333     0.216053333333     0          
C6       C      0.781176666667     0.983503333333     0.213483333333     0          
C7       C      0.770166666667     0.010303333333     0.199483333333     0          
H8       H      0.798566666667     0.034933333333     0.191533333333     0          
C9       C      0.717166666667     0.002033333333     0.196613333333     0          
H10      H      0.710466666667     0.020733333333     0.186933333333     0          
C11      C      0.675366666667     0.965833333333     0.208233333333     0          
C12      C      0.685766666667     0.935233333333     0.221613333333     0          
H13      H      0.656866666667     0.907733333333     0.228533333333     0          
C14      C      0.739066666667     0.945533333333     0.224693333333     0          
H15      H      0.745966666667     0.926633333333     0.234233333333     0          
C16      C      0.620066666667     0.954733333333     0.206493333333     0          
C17      C      0.575566666667     0.949833333333     0.204503333333     0          
C18      C      0.522966666667     0.946233333333     0.203243333333     0          
C19      C      0.513866666667     0.975833333333     0.189603333333     0          
C20      C      0.552766666667     0.007633333333     0.175283333333     0          
H21      H      0.586566666667     0.009133333333     0.175533333333     0          
C22      C      0.543966666667     0.035233333333     0.161613333333     0          
C23      C      0.482066666667     0.912533333333     0.216893333333     0          
C24      C      0.488966666667     0.878733333333     0.231473333333     0          
H25      H      0.521866666667     0.878433333333     0.231733333333     0          
C26      C      0.450366666667     0.848333333333     0.244493333333     0          
C27      C      0.886166666667     0.859233333333     0.299263333333     0          
H28      H      0.862966666667     0.870233333333     0.293833333333     0          
C29      C      0.874066666667     0.830833333333     0.317113333333     0          
H30      H      0.841566666667     0.822333333333     0.323433333333     0          
C31      C      0.902166666667     0.717033333333     0.383503333333     0          
C32      C      0.956566666667     0.736733333333     0.376433333333     0          
H33      H      0.968266666667     0.759533333333     0.365633333333     0          
C34      C      0.989466666667     0.723733333333     0.384433333333     0          
H35      H      0.024966666667     0.738233333333     0.379733333333     0          
C36      C      0.972066666667     0.687333333333     0.400333333333     0          
H37      H      0.995766666667     0.676233333333     0.405233333333     0          
C38      C      0.923366666667     0.668533333333     0.408733333333     0          
H39      H      0.915166666667     0.646733333333     0.419733333333     0          
C40      C      0.883466666667     0.680633333333     0.401433333333     0          
C41      C      0.813466666667     0.541433333333     0.460993333333     0          
H42      H      0.848366666667     0.553933333333     0.455933333333     0          
C43      C      0.793366666667     0.502133333333     0.476423333333     0          
H44      H      0.815466666667     0.489133333333     0.481333333333     0          
H45      H      0.243256666667     0.391673333333     0.483503333333     0          
H46      H      0.124896666667     0.156133333333     0.588763333333     0          
O1       O      0.030496666667     0.876723333333     0.230203333333     0          
O2       O      0.975596666667     0.849663333333     0.203683333333     0          
O3       O      0.571876666667     0.245003333333     0.505953333333     0          
O4       O      0.090446666667     0.002993333333     0.263993333333     0          
C5       C      0.007036666667     0.845373333333     0.216053333333     0          
C6       C      0.016496666667     0.797673333333     0.213483333333     0          
C7       C      0.989696666667     0.759863333333     0.199483333333     0          
H8       H      0.965066666667     0.763633333333     0.191533333333     0          
C9       C      0.997966666667     0.715133333333     0.196613333333     0          
H10      H      0.979266666667     0.689733333333     0.186933333333     0          
C11      C      0.034166666667     0.709533333333     0.208233333333     0          
C12      C      0.064766666667     0.750533333333     0.221613333333     0          
H13      H      0.092266666667     0.749133333333     0.228533333333     0          
C14      C      0.054466666667     0.793533333333     0.224693333333     0          
H15      H      0.073366666667     0.819333333333     0.234233333333     0          
C16      C      0.045266666667     0.665333333333     0.206493333333     0          
C17      C      0.050166666667     0.625733333333     0.204503333333     0          
C18      C      0.053766666667     0.576733333333     0.203243333333     0          
C19      C      0.024166666667     0.538033333333     0.189603333333     0          
C20      C      0.992366666667     0.545133333333     0.175283333333     0          
H21      H      0.990866666667     0.577433333333     0.175533333333     0          
C22      C      0.964766666667     0.508733333333     0.161613333333     0          
C23      C      0.087466666667     0.569533333333     0.216893333333     0          
C24      C      0.121266666667     0.610233333333     0.231473333333     0          
H25      H      0.121566666667     0.643433333333     0.231733333333     0          
C26      C      0.151666666667     0.602033333333     0.244493333333     0          
C27      C      0.140766666667     0.026933333333     0.299263333333     0          
H28      H      0.129766666667     0.992733333333     0.293833333333     0          
C29      C      0.169166666667     0.043233333333     0.317113333333     0          
H30      H      0.177666666667     0.019233333333     0.323433333333     0          
C31      C      0.282966666667     0.185133333333     0.383503333333     0          
C32      C      0.263266666667     0.219833333333     0.376433333333     0          
H33      H      0.240466666667     0.208733333333     0.365633333333     0          
C34      C      0.276266666667     0.265733333333     0.384433333333     0          
H35      H      0.261766666667     0.286733333333     0.379733333333     0          
C36      C      0.312666666667     0.284733333333     0.400333333333     0          
H37      H      0.323766666667     0.319533333333     0.405233333333     0          
C38      C      0.331466666667     0.254833333333     0.408733333333     0          
H39      H      0.353266666667     0.268433333333     0.419733333333     0          
C40      C      0.319366666667     0.202833333333     0.401433333333     0          
C41      C      0.458566666667     0.272033333333     0.460993333333     0          
H42      H      0.446066666667     0.294433333333     0.455933333333     0          
C43      C      0.497866666667     0.291233333333     0.476423333333     0          
H44      H      0.510866666667     0.326333333333     0.481333333333     0          
H45      H      0.608326666667     0.851583333333     0.483503333333     0          
H46      H      0.843866666667     0.968763333333     0.588763333333     0          
O1       O      0.487106666667     0.789943333333     0.436463333333     0          
O2       O      0.459266666667     0.817003333333     0.462983333333     0          
O3       O      0.660206666667     0.421663333333     0.160713333333     0          
O4       O      0.420786666667     0.663673333333     0.402673333333     0          
C5       C      0.494996666667     0.821293333333     0.450613333333     0          
C6       C      0.552156666667     0.868993333333     0.453183333333     0          
C7       C      0.563166666667     0.906803333333     0.467183333333     0          
H8       H      0.534766666667     0.903033333333     0.475133333333     0          
C9       C      0.616166666667     0.951533333333     0.470053333333     0          
H10      H      0.622866666667     0.976933333333     0.479733333333     0          
C11      C      0.657966666667     0.957133333333     0.458433333333     0          
C12      C      0.647566666667     0.916133333333     0.445053333333     0          
H13      H      0.676466666667     0.917533333333     0.438133333333     0          
C14      C      0.594266666667     0.873133333333     0.441973333333     0          
H15      H      0.587366666667     0.847333333333     0.432433333333     0          
C16      C      0.713266666667     0.001333333333     0.460173333333     0          
C17      C      0.757766666667     0.040933333333     0.462163333333     0          
C18      C      0.810366666667     0.089933333333     0.463423333333     0          
C19      C      0.819466666667     0.128633333333     0.477063333333     0          
C20      C      0.780566666667     0.121533333333     0.491383333333     0          
H21      H      0.746766666667     0.089233333333     0.491133333333     0          
C22      C      0.789366666667     0.157933333333     0.505053333333     0          
C23      C      0.851266666667     0.097133333333     0.449773333333     0          
C24      C      0.844366666667     0.056433333333     0.435193333333     0          
H25      H      0.811466666667     0.023233333333     0.434933333333     0          
C26      C      0.882966666667     0.064633333333     0.422173333333     0          
C27      C      0.447166666667     0.639733333333     0.367403333333     0          
H28      H      0.470366666667     0.673933333333     0.372833333333     0          
C29      C      0.459266666667     0.623433333333     0.349553333333     0          
H30      H      0.491766666667     0.647433333333     0.343233333333     0          
C31      C      0.431166666667     0.481533333333     0.283163333333     0          
C32      C      0.376766666667     0.446833333333     0.290233333333     0          
H33      H      0.365066666667     0.457933333333     0.301033333333     0          
C34      C      0.343866666667     0.400933333333     0.282233333333     0          
H35      H      0.308366666667     0.379933333333     0.286933333333     0          
C36      C      0.361266666667     0.381933333333     0.266333333333     0          
H37      H      0.337566666667     0.347133333333     0.261433333333     0          
C38      C      0.409966666667     0.411833333333     0.257933333333     0          
H39      H      0.418166666667     0.398233333333     0.246933333333     0          
C40      C      0.449866666667     0.463833333333     0.265233333333     0          
C41      C      0.519866666667     0.394633333333     0.205673333333     0          
H42      H      0.484966666667     0.372233333333     0.210733333333     0          
C43      C      0.539966666667     0.375433333333     0.190243333333     0          
H44      H      0.517866666667     0.340333333333     0.185333333333     0          
H45      H      0.090076666667     0.815083333333     0.183163333333     0          
H46      H      0.208436666667     0.697903333333     0.077903333333     0          
O1       O      0.210056666667     0.697163333333     0.436463333333     0          
O2       O      0.182996666667     0.642263333333     0.462983333333     0          
O3       O      0.578336666667     0.238543333333     0.160713333333     0          
O4       O      0.336326666667     0.757113333333     0.402673333333     0          
C5       C      0.178706666667     0.673703333333     0.450613333333     0          
C6       C      0.131006666667     0.683163333333     0.453183333333     0          
C7       C      0.093196666667     0.656363333333     0.467183333333     0          
H8       H      0.096966666667     0.631733333333     0.475133333333     0          
C9       C      0.048466666667     0.664633333333     0.470053333333     0          
H10      H      0.023066666667     0.645933333333     0.479733333333     0          
C11      C      0.042866666667     0.700833333333     0.458433333333     0          
C12      C      0.083866666667     0.731433333333     0.445053333333     0          
H13      H      0.082466666667     0.758933333333     0.438133333333     0          
C14      C      0.126866666667     0.721133333333     0.441973333333     0          
H15      H      0.152666666667     0.740033333333     0.432433333333     0          
C16      C      0.998666666667     0.711933333333     0.460173333333     0          
C17      C      0.959066666667     0.716833333333     0.462163333333     0          
C18      C      0.910066666667     0.720433333333     0.463423333333     0          
C19      C      0.871366666667     0.690833333333     0.477063333333     0          
C20      C      0.878466666667     0.659033333333     0.491383333333     0          
H21      H      0.910766666667     0.657533333333     0.491133333333     0          
C22      C      0.842066666667     0.631433333333     0.505053333333     0          
C23      C      0.902866666667     0.754133333333     0.449773333333     0          
C24      C      0.943566666667     0.787933333333     0.435193333333     0          
H25      H      0.976766666667     0.788233333333     0.434933333333     0          
C26      C      0.935366666667     0.818333333333     0.422173333333     0          
C27      C      0.360266666667     0.807433333333     0.367403333333     0          
H28      H      0.326066666667     0.796433333333     0.372833333333     0          
C29      C      0.376566666667     0.835833333333     0.349553333333     0          
H30      H      0.352566666667     0.844333333333     0.343233333333     0          
C31      C      0.518466666667     0.949633333333     0.283163333333     0          
C32      C      0.553166666667     0.929933333333     0.290233333333     0          
H33      H      0.542066666667     0.907133333333     0.301033333333     0          
C34      C      0.599066666667     0.942933333333     0.282233333333     0          
H35      H      0.620066666667     0.928433333333     0.286933333333     0          
C36      C      0.618066666667     0.979333333333     0.266333333333     0          
H37      H      0.652866666667     0.990433333333     0.261433333333     0          
C38      C      0.588166666667     0.998133333333     0.257933333333     0          
H39      H      0.601766666667     0.019933333333     0.246933333333     0          
C40      C      0.536166666667     0.986033333333     0.265233333333     0          
C41      C      0.605366666667     0.125233333333     0.205673333333     0          
H42      H      0.627766666667     0.112733333333     0.210733333333     0          
C43      C      0.624566666667     0.164533333333     0.190243333333     0          
H44      H      0.659666666667     0.177533333333     0.185333333333     0          
H45      H      0.184916666667     0.274993333333     0.183163333333     0          
H46      H      0.302096666667     0.510533333333     0.077903333333     0          
O1       O      0.302836666667     0.512893333333     0.436463333333     0          
O2       O      0.357736666667     0.540733333333     0.462983333333     0          
O3       O      0.761456666667     0.339793333333     0.160713333333     0          
O4       O      0.242886666667     0.579213333333     0.402673333333     0          
C5       C      0.326296666667     0.505003333333     0.450613333333     0          
C6       C      0.316836666667     0.447843333333     0.453183333333     0          
C7       C      0.343636666667     0.436833333333     0.467183333333     0          
H8       H      0.368266666667     0.465233333333     0.475133333333     0          
C9       C      0.335366666667     0.383833333333     0.470053333333     0          
H10      H      0.354066666667     0.377133333333     0.479733333333     0          
C11      C      0.299166666667     0.342033333333     0.458433333333     0          
C12      C      0.268566666667     0.352433333333     0.445053333333     0          
H13      H      0.241066666667     0.323533333333     0.438133333333     0          
C14      C      0.278866666667     0.405733333333     0.441973333333     0          
H15      H      0.259966666667     0.412633333333     0.432433333333     0          
C16      C      0.288066666667     0.286733333333     0.460173333333     0          
C17      C      0.283166666667     0.242233333333     0.462163333333     0          
C18      C      0.279566666667     0.189633333333     0.463423333333     0          
C19      C      0.309166666667     0.180533333333     0.477063333333     0          
C20      C      0.340966666667     0.219433333333     0.491383333333     0          
H21      H      0.342466666667     0.253233333333     0.491133333333     0          
C22      C      0.368566666667     0.210633333333     0.505053333333     0          
C23      C      0.245866666667     0.148733333333     0.449773333333     0          
C24      C      0.212066666667     0.155633333333     0.435193333333     0          
H25      H      0.211766666667     0.188533333333     0.434933333333     0          
C26      C      0.181666666667     0.117033333333     0.422173333333     0          
C27      C      0.192566666667     0.552833333333     0.367403333333     0          
H28      H      0.203566666667     0.529633333333     0.372833333333     0          
C29      C      0.164166666667     0.540733333333     0.349553333333     0          
H30      H      0.155666666667     0.508233333333     0.343233333333     0          
C31      C      0.050366666667     0.568833333333     0.283163333333     0          
C32      C      0.070066666667     0.623233333333     0.290233333333     0          
H33      H      0.092866666667     0.634933333333     0.301033333333     0          
C34      C      0.057066666667     0.656133333333     0.282233333333     0          
H35      H      0.071566666667     0.691633333333     0.286933333333     0          
C36      C      0.020666666667     0.638733333333     0.266333333333     0          
H37      H      0.009566666667     0.662433333333     0.261433333333     0          
C38      C      0.001866666667     0.590033333333     0.257933333333     0          
H39      H      0.980066666667     0.581833333333     0.246933333333     0          
C40      C      0.013966666667     0.550133333333     0.265233333333     0          
C41      C      0.874766666667     0.480133333333     0.205673333333     0          
H42      H      0.887266666667     0.515033333333     0.210733333333     0          
C43      C      0.835466666667     0.460033333333     0.190243333333     0          
H44      H      0.822466666667     0.482133333333     0.185333333333     0          
H45      H      0.725006666667     0.909923333333     0.183163333333     0          
H46      H      0.489466666667     0.791563333333     0.077903333333     0          
O1       O      0.876723333333     0.846226666667     0.769796666667     0          
O2       O      0.849663333333     0.874066666667     0.796316666667     0          
O3       O      0.245003333333     0.673126666667     0.494046666667     0          
O4       O      0.002993333333     0.912546666667     0.736006666667     0          
C5       C      0.845373333333     0.838336666667     0.783946666667     0          
C6       C      0.797673333333     0.781176666667     0.786516666667     0          
C7       C      0.759863333333     0.770166666667     0.800516666667     0          
H8       H      0.763633333333     0.798566666667     0.808466666667     0          
C9       C      0.715133333333     0.717166666667     0.803386666667     0          
H10      H      0.689733333333     0.710466666667     0.813066666667     0          
C11      C      0.709533333333     0.675366666667     0.791766666667     0          
C12      C      0.750533333333     0.685766666667     0.778386666667     0          
H13      H      0.749133333333     0.656866666667     0.771466666667     0          
C14      C      0.793533333333     0.739066666667     0.775306666667     0          
H15      H      0.819333333333     0.745966666667     0.765766666667     0          
C16      C      0.665333333333     0.620066666667     0.793506666667     0          
C17      C      0.625733333333     0.575566666667     0.795496666667     0          
C18      C      0.576733333333     0.522966666667     0.796756666667     0          
C19      C      0.538033333333     0.513866666667     0.810396666667     0          
C20      C      0.545133333333     0.552766666667     0.824716666667     0          
H21      H      0.577433333333     0.586566666667     0.824466666667     0          
C22      C      0.508733333333     0.543966666667     0.838386666667     0          
C23      C      0.569533333333     0.482066666667     0.783106666667     0          
C24      C      0.610233333333     0.488966666667     0.768526666667     0          
H25      H      0.643433333333     0.521866666667     0.768266666667     0          
C26      C      0.602033333333     0.450366666667     0.755506666667     0          
C27      C      0.026933333333     0.886166666667     0.700736666667     0          
H28      H      0.992733333333     0.862966666667     0.706166666667     0          
C29      C      0.043233333333     0.874066666667     0.682886666667     0          
H30      H      0.019233333333     0.841566666667     0.676566666667     0          
C31      C      0.185133333333     0.902166666667     0.616496666667     0          
C32      C      0.219833333333     0.956566666667     0.623566666667     0          
H33      H      0.208733333333     0.968266666667     0.634366666667     0          
C34      C      0.265733333333     0.989466666667     0.615566666667     0          
H35      H      0.286733333333     0.024966666667     0.620266666667     0          
C36      C      0.284733333333     0.972066666667     0.599666666667     0          
H37      H      0.319533333333     0.995766666667     0.594766666667     0          
C38      C      0.254833333333     0.923366666667     0.591266666667     0          
H39      H      0.268433333333     0.915166666667     0.580266666667     0          
C40      C      0.202833333333     0.883466666667     0.598566666667     0          
C41      C      0.272033333333     0.813466666667     0.539006666667     0          
H42      H      0.294433333333     0.848366666667     0.544066666667     0          
C43      C      0.291233333333     0.793366666667     0.523576666667     0          
H44      H      0.326333333333     0.815466666667     0.518666666667     0          
H45      H      0.851583333333     0.243256666667     0.516496666667     0          
H46      H      0.968763333333     0.124896666667     0.411236666667     0          
Zr47     Zr     0.041493333333     0.958506666667     0.802816666667     0          
O48      O      0.046913333333     0.953086666667     0.770326666667     0          
C49      C      0.050753333333     0.949246666667     0.728566666667     0          
C50      C      0.065083333333     0.934916666667     0.709626666667     0          
C51      C      0.092133333333     0.907866666667     0.674866666667     0          
C52      C      0.106533333333     0.893466666667     0.655766666667     0          
C53      C      0.118333333333     0.881666666667     0.641866666667     0          
C54      C      0.134533333333     0.865466666667     0.623826666667     0          
C55      C      0.167133333333     0.832866666667     0.591526666667     0          
C56      C      0.185833333333     0.814166666667     0.574376666667     0          
C57      C      0.199733333333     0.800266666667     0.561866666667     0          
C58      C      0.219733333333     0.780266666667     0.546316666667     0          
C59      C      0.278013333333     0.721986666667     0.499946666667     0          
C60      C      0.258313333333     0.741686666667     0.516076666667     0          
Zr61     Zr     0.958473333333     0.916946666667     0.761716666667     0          
O62      O      0.964973333333     0.929946666667     0.790896666667     0          
O63      O      0.000003333333     0.999996666667     0.755906666667     0          
O64      O      0.000003333333     0.999996666667     0.817136666667     0          
O1       O      0.153773333333     0.030496666667     0.769796666667     0          
O2       O      0.125933333333     0.975596666667     0.796316666667     0          
O3       O      0.326873333333     0.571876666667     0.494046666667     0          
O4       O      0.087453333333     0.090446666667     0.736006666667     0          
C5       C      0.161663333333     0.007036666667     0.783946666667     0          
C6       C      0.218823333333     0.016496666667     0.786516666667     0          
C7       C      0.229833333333     0.989696666667     0.800516666667     0          
H8       H      0.201433333333     0.965066666667     0.808466666667     0          
C9       C      0.282833333333     0.997966666667     0.803386666667     0          
H10      H      0.289533333333     0.979266666667     0.813066666667     0          
C11      C      0.324633333333     0.034166666667     0.791766666667     0          
C12      C      0.314233333333     0.064766666667     0.778386666667     0          
H13      H      0.343133333333     0.092266666667     0.771466666667     0          
C14      C      0.260933333333     0.054466666667     0.775306666667     0          
H15      H      0.254033333333     0.073366666667     0.765766666667     0          
C16      C      0.379933333333     0.045266666667     0.793506666667     0          
C17      C      0.424433333333     0.050166666667     0.795496666667     0          
C18      C      0.477033333333     0.053766666667     0.796756666667     0          
C19      C      0.486133333333     0.024166666667     0.810396666667     0          
C20      C      0.447233333333     0.992366666667     0.824716666667     0          
H21      H      0.413433333333     0.990866666667     0.824466666667     0          
C22      C      0.456033333333     0.964766666667     0.838386666667     0          
C23      C      0.517933333333     0.087466666667     0.783106666667     0          
C24      C      0.511033333333     0.121266666667     0.768526666667     0          
H25      H      0.478133333333     0.121566666667     0.768266666667     0          
C26      C      0.549633333333     0.151666666667     0.755506666667     0          
C27      C      0.113833333333     0.140766666667     0.700736666667     0          
H28      H      0.137033333333     0.129766666667     0.706166666667     0          
C29      C      0.125933333333     0.169166666667     0.682886666667     0          
H30      H      0.158433333333     0.177666666667     0.676566666667     0          
C31      C      0.097833333333     0.282966666667     0.616496666667     0          
C32      C      0.043433333333     0.263266666667     0.623566666667     0          
H33      H      0.031733333333     0.240466666667     0.634366666667     0          
C34      C      0.010533333333     0.276266666667     0.615566666667     0          
H35      H      0.975033333333     0.261766666667     0.620266666667     0          
C36      C      0.027933333333     0.312666666667     0.599666666667     0          
H37      H      0.004233333333     0.323766666667     0.594766666667     0          
C38      C      0.076633333333     0.331466666667     0.591266666667     0          
H39      H      0.084833333333     0.353266666667     0.580266666667     0          
C40      C      0.116533333333     0.319366666667     0.598566666667     0          
C41      C      0.186533333333     0.458566666667     0.539006666667     0          
H42      H      0.151633333333     0.446066666667     0.544066666667     0          
C43      C      0.206633333333     0.497866666667     0.523576666667     0          
H44      H      0.184533333333     0.510866666667     0.518666666667     0          
H45      H      0.756743333333     0.608326666667     0.516496666667     0          
H46      H      0.875103333333     0.843866666667     0.411236666667     0          
Zr47     Zr     0.041493333333     0.082986666667     0.802816666667     0          
O48      O      0.046913333333     0.093826666667     0.770326666667     0          
C49      C      0.050753333333     0.101506666667     0.728566666667     0          
C50      C      0.065083333333     0.130166666667     0.709626666667     0          
C51      C      0.092133333333     0.184266666667     0.674866666667     0          
C52      C      0.106533333333     0.213066666667     0.655766666667     0          
C53      C      0.118333333333     0.236666666667     0.641866666667     0          
C54      C      0.134533333333     0.269066666667     0.623826666667     0          
C55      C      0.167133333333     0.334266666667     0.591526666667     0          
C56      C      0.185833333333     0.371666666667     0.574376666667     0          
C57      C      0.199733333333     0.399466666667     0.561866666667     0          
C58      C      0.219733333333     0.439466666667     0.546316666667     0          
C59      C      0.278013333333     0.556026666667     0.499946666667     0          
C60      C      0.258313333333     0.516626666667     0.516076666667     0          
Zr61     Zr     0.083053333333     0.041526666667     0.761716666667     0          
O62      O      0.070053333333     0.035026666667     0.790896666667     0          
O1       O      0.969503333333     0.123276666667     0.769796666667     0          
O2       O      0.024403333333     0.150336666667     0.796316666667     0          
O3       O      0.428123333333     0.754996666667     0.494046666667     0          
O4       O      0.909553333333     0.997006666667     0.736006666667     0          
C5       C      0.992963333333     0.154626666667     0.783946666667     0          
C6       C      0.983503333333     0.202326666667     0.786516666667     0          
C7       C      0.010303333333     0.240136666667     0.800516666667     0          
H8       H      0.034933333333     0.236366666667     0.808466666667     0          
C9       C      0.002033333333     0.284866666667     0.803386666667     0          
H10      H      0.020733333333     0.310266666667     0.813066666667     0          
C11      C      0.965833333333     0.290466666667     0.791766666667     0          
C12      C      0.935233333333     0.249466666667     0.778386666667     0          
H13      H      0.907733333333     0.250866666667     0.771466666667     0          
C14      C      0.945533333333     0.206466666667     0.775306666667     0          
H15      H      0.926633333333     0.180666666667     0.765766666667     0          
C16      C      0.954733333333     0.334666666667     0.793506666667     0          
C17      C      0.949833333333     0.374266666667     0.795496666667     0          
C18      C      0.946233333333     0.423266666667     0.796756666667     0          
C19      C      0.975833333333     0.461966666667     0.810396666667     0          
C20      C      0.007633333333     0.454866666667     0.824716666667     0          
H21      H      0.009133333333     0.422566666667     0.824466666667     0          
C22      C      0.035233333333     0.491266666667     0.838386666667     0          
C23      C      0.912533333333     0.430466666667     0.783106666667     0          
C24      C      0.878733333333     0.389766666667     0.768526666667     0          
H25      H      0.878433333333     0.356566666667     0.768266666667     0          
C26      C      0.848333333333     0.397966666667     0.755506666667     0          
C27      C      0.859233333333     0.973066666667     0.700736666667     0          
H28      H      0.870233333333     0.007266666667     0.706166666667     0          
C29      C      0.830833333333     0.956766666667     0.682886666667     0          
H30      H      0.822333333333     0.980766666667     0.676566666667     0          
C31      C      0.717033333333     0.814866666667     0.616496666667     0          
C32      C      0.736733333333     0.780166666667     0.623566666667     0          
H33      H      0.759533333333     0.791266666667     0.634366666667     0          
C34      C      0.723733333333     0.734266666667     0.615566666667     0          
H35      H      0.738233333333     0.713266666667     0.620266666667     0          
C36      C      0.687333333333     0.715266666667     0.599666666667     0          
H37      H      0.676233333333     0.680466666667     0.594766666667     0          
C38      C      0.668533333333     0.745166666667     0.591266666667     0          
H39      H      0.646733333333     0.731566666667     0.580266666667     0          
C40      C      0.680633333333     0.797166666667     0.598566666667     0          
C41      C      0.541433333333     0.727966666667     0.539006666667     0          
H42      H      0.553933333333     0.705566666667     0.544066666667     0          
C43      C      0.502133333333     0.708766666667     0.523576666667     0          
H44      H      0.489133333333     0.673666666667     0.518666666667     0          
H45      H      0.391673333333     0.148416666667     0.516496666667     0          
H46      H      0.156133333333     0.031236666667     0.411236666667     0          
Zr47     Zr     0.917013333333     0.958506666667     0.802816666667     0          
O48      O      0.906173333333     0.953086666667     0.770326666667     0          
C49      C      0.898493333333     0.949246666667     0.728566666667     0          
C50      C      0.869833333333     0.934916666667     0.709626666667     0          
C51      C      0.815733333333     0.907866666667     0.674866666667     0          
C52      C      0.786933333333     0.893466666667     0.655766666667     0          
C53      C      0.763333333333     0.881666666667     0.641866666667     0          
C54      C      0.730933333333     0.865466666667     0.623826666667     0          
C55      C      0.665733333333     0.832866666667     0.591526666667     0          
C56      C      0.628333333333     0.814166666667     0.574376666667     0          
C57      C      0.600533333333     0.800266666667     0.561866666667     0          
C58      C      0.560533333333     0.780266666667     0.546316666667     0          
C59      C      0.443973333333     0.721986666667     0.499946666667     0          
C60      C      0.483373333333     0.741686666667     0.516076666667     0          
Zr61     Zr     0.958473333333     0.041526666667     0.761716666667     0          
O62      O      0.964973333333     0.035026666667     0.790896666667     0          
O1       O      0.512893333333     0.210056666667     0.563536666667     0          
O2       O      0.540733333333     0.182996666667     0.537016666667     0          
O3       O      0.339793333333     0.578336666667     0.839286666667     0          
O4       O      0.579213333333     0.336326666667     0.597326666667     0          
C5       C      0.505003333333     0.178706666667     0.549386666667     0          
C6       C      0.447843333333     0.131006666667     0.546816666667     0          
C7       C      0.436833333333     0.093196666667     0.532816666667     0          
H8       H      0.465233333333     0.096966666667     0.524866666667     0          
C9       C      0.383833333333     0.048466666667     0.529946666667     0          
H10      H      0.377133333333     0.023066666667     0.520266666667     0          
C11      C      0.342033333333     0.042866666667     0.541566666667     0          
C12      C      0.352433333333     0.083866666667     0.554946666667     0          
H13      H      0.323533333333     0.082466666667     0.561866666667     0          
C14      C      0.405733333333     0.126866666667     0.558026666667     0          
H15      H      0.412633333333     0.152666666667     0.567566666667     0          
C16      C      0.286733333333     0.998666666667     0.539826666667     0          
C17      C      0.242233333333     0.959066666667     0.537836666667     0          
C18      C      0.189633333333     0.910066666667     0.536576666667     0          
C19      C      0.180533333333     0.871366666667     0.522936666667     0          
C20      C      0.219433333333     0.878466666667     0.508616666667     0          
H21      H      0.253233333333     0.910766666667     0.508866666667     0          
C22      C      0.210633333333     0.842066666667     0.494946666667     0          
C23      C      0.148733333333     0.902866666667     0.550226666667     0          
C24      C      0.155633333333     0.943566666667     0.564806666667     0          
H25      H      0.188533333333     0.976766666667     0.565066666667     0          
C26      C      0.117033333333     0.935366666667     0.577826666667     0          
C27      C      0.552833333333     0.360266666667     0.632596666667     0          
H28      H      0.529633333333     0.326066666667     0.627166666667     0          
C29      C      0.540733333333     0.376566666667     0.650446666667     0          
H30      H      0.508233333333     0.352566666667     0.656766666667     0          
C31      C      0.568833333333     0.518466666667     0.716836666667     0          
C32      C      0.623233333333     0.553166666667     0.709766666667     0          
H33      H      0.634933333333     0.542066666667     0.698966666667     0          
C34      C      0.656133333333     0.599066666667     0.717766666667     0          
H35      H      0.691633333333     0.620066666667     0.713066666667     0          
C36      C      0.638733333333     0.618066666667     0.733666666667     0          
H37      H      0.662433333333     0.652866666667     0.738566666667     0          
C38      C      0.590033333333     0.588166666667     0.742066666667     0          
H39      H      0.581833333333     0.601766666667     0.753066666667     0          
C40      C      0.550133333333     0.536166666667     0.734766666667     0          
C41      C      0.480133333333     0.605366666667     0.794326666667     0          
H42      H      0.515033333333     0.627766666667     0.789266666667     0          
C43      C      0.460033333333     0.624566666667     0.809756666667     0          
H44      H      0.482133333333     0.659666666667     0.814666666667     0          
H45      H      0.909923333333     0.184916666667     0.816836666667     0          
H46      H      0.791563333333     0.302096666667     0.922096666667     0          
Zr47     Zr     0.625173333333     0.374826666667     0.530516666667     0          
O48      O      0.619753333333     0.380246666667     0.563006666667     0          
C49      C      0.615913333333     0.384086666667     0.604766666667     0          
C50      C      0.601583333333     0.398416666667     0.623706666667     0          
C51      C      0.574533333333     0.425466666667     0.658466666667     0          
C52      C      0.560133333333     0.439866666667     0.677566666667     0          
C53      C      0.548333333333     0.451666666667     0.691466666667     0          
C54      C      0.532133333333     0.467866666667     0.709506666667     0          
C55      C      0.499533333333     0.500466666667     0.741806666667     0          
C56      C      0.480833333333     0.519166666667     0.758956666667     0          
C57      C      0.466933333333     0.533066666667     0.771466666667     0          
C58      C      0.446933333333     0.553066666667     0.787016666667     0          
C59      C      0.388653333333     0.611346666667     0.833386666667     0          
C60      C      0.408353333333     0.591646666667     0.817256666667     0          
Zr61     Zr     0.583613333333     0.291806666667     0.571616666667     0          
O62      O      0.596613333333     0.298306666667     0.542436666667     0          
O63      O      0.666663333333     0.333336666667     0.577426666667     0          
O64      O      0.666663333333     0.333336666667     0.516196666667     0          
O1       O      0.789943333333     0.302836666667     0.563536666667     0          
O2       O      0.817003333333     0.357736666667     0.537016666667     0          
O3       O      0.421663333333     0.761456666667     0.839286666667     0          
O4       O      0.663673333333     0.242886666667     0.597326666667     0          
C5       C      0.821293333333     0.326296666667     0.549386666667     0          
C6       C      0.868993333333     0.316836666667     0.546816666667     0          
C7       C      0.906803333333     0.343636666667     0.532816666667     0          
H8       H      0.903033333333     0.368266666667     0.524866666667     0          
C9       C      0.951533333333     0.335366666667     0.529946666667     0          
H10      H      0.976933333333     0.354066666667     0.520266666667     0          
C11      C      0.957133333333     0.299166666667     0.541566666667     0          
C12      C      0.916133333333     0.268566666667     0.554946666667     0          
H13      H      0.917533333333     0.241066666667     0.561866666667     0          
C14      C      0.873133333333     0.278866666667     0.558026666667     0          
H15      H      0.847333333333     0.259966666667     0.567566666667     0          
C16      C      0.001333333333     0.288066666667     0.539826666667     0          
C17      C      0.040933333333     0.283166666667     0.537836666667     0          
C18      C      0.089933333333     0.279566666667     0.536576666667     0          
C19      C      0.128633333333     0.309166666667     0.522936666667     0          
C20      C      0.121533333333     0.340966666667     0.508616666667     0          
H21      H      0.089233333333     0.342466666667     0.508866666667     0          
C22      C      0.157933333333     0.368566666667     0.494946666667     0          
C23      C      0.097133333333     0.245866666667     0.550226666667     0          
C24      C      0.056433333333     0.212066666667     0.564806666667     0          
H25      H      0.023233333333     0.211766666667     0.565066666667     0          
C26      C      0.064633333333     0.181666666667     0.577826666667     0          
C27      C      0.639733333333     0.192566666667     0.632596666667     0          
H28      H      0.673933333333     0.203566666667     0.627166666667     0          
C29      C      0.623433333333     0.164166666667     0.650446666667     0          
H30      H      0.647433333333     0.155666666667     0.656766666667     0          
C31      C      0.481533333333     0.050366666667     0.716836666667     0          
C32      C      0.446833333333     0.070066666667     0.709766666667     0          
H33      H      0.457933333333     0.092866666667     0.698966666667     0          
C34      C      0.400933333333     0.057066666667     0.717766666667     0          
H35      H      0.379933333333     0.071566666667     0.713066666667     0          
C36      C      0.381933333333     0.020666666667     0.733666666667     0          
H37      H      0.347133333333     0.009566666667     0.738566666667     0          
C38      C      0.411833333333     0.001866666667     0.742066666667     0          
H39      H      0.398233333333     0.980066666667     0.753066666667     0          
C40      C      0.463833333333     0.013966666667     0.734766666667     0          
C41      C      0.394633333333     0.874766666667     0.794326666667     0          
H42      H      0.372233333333     0.887266666667     0.789266666667     0          
C43      C      0.375433333333     0.835466666667     0.809756666667     0          
H44      H      0.340333333333     0.822466666667     0.814666666667     0          
H45      H      0.815083333333     0.725006666667     0.816836666667     0          
H46      H      0.697903333333     0.489466666667     0.922096666667     0          
Zr47     Zr     0.625173333333     0.250346666667     0.530516666667     0          
O48      O      0.619753333333     0.239506666667     0.563006666667     0          
C49      C      0.615913333333     0.231826666667     0.604766666667     0          
C50      C      0.601583333333     0.203166666667     0.623706666667     0          
C51      C      0.574533333333     0.149066666667     0.658466666667     0          
C52      C      0.560133333333     0.120266666667     0.677566666667     0          
C53      C      0.548333333333     0.096666666667     0.691466666667     0          
C54      C      0.532133333333     0.064266666667     0.709506666667     0          
C55      C      0.499533333333     0.999066666667     0.741806666667     0          
C56      C      0.480833333333     0.961666666667     0.758956666667     0          
C57      C      0.466933333333     0.933866666667     0.771466666667     0          
C58      C      0.446933333333     0.893866666667     0.787016666667     0          
C59      C      0.388653333333     0.777306666667     0.833386666667     0          
C60      C      0.408353333333     0.816706666667     0.817256666667     0          
Zr61     Zr     0.708193333333     0.291806666667     0.571616666667     0          
O62      O      0.701693333333     0.298306666667     0.542436666667     0          
O1       O      0.697163333333     0.487106666667     0.563536666667     0          
O2       O      0.642263333333     0.459266666667     0.537016666667     0          
O3       O      0.238543333333     0.660206666667     0.839286666667     0          
O4       O      0.757113333333     0.420786666667     0.597326666667     0          
C5       C      0.673703333333     0.494996666667     0.549386666667     0          
C6       C      0.683163333333     0.552156666667     0.546816666667     0          
C7       C      0.656363333333     0.563166666667     0.532816666667     0          
H8       H      0.631733333333     0.534766666667     0.524866666667     0          
C9       C      0.664633333333     0.616166666667     0.529946666667     0          
H10      H      0.645933333333     0.622866666667     0.520266666667     0          
C11      C      0.700833333333     0.657966666667     0.541566666667     0          
C12      C      0.731433333333     0.647566666667     0.554946666667     0          
H13      H      0.758933333333     0.676466666667     0.561866666667     0          
C14      C      0.721133333333     0.594266666667     0.558026666667     0          
H15      H      0.740033333333     0.587366666667     0.567566666667     0          
C16      C      0.711933333333     0.713266666667     0.539826666667     0          
C17      C      0.716833333333     0.757766666667     0.537836666667     0          
C18      C      0.720433333333     0.810366666667     0.536576666667     0          
C19      C      0.690833333333     0.819466666667     0.522936666667     0          
C20      C      0.659033333333     0.780566666667     0.508616666667     0          
H21      H      0.657533333333     0.746766666667     0.508866666667     0          
C22      C      0.631433333333     0.789366666667     0.494946666667     0          
C23      C      0.754133333333     0.851266666667     0.550226666667     0          
C24      C      0.787933333333     0.844366666667     0.564806666667     0          
H25      H      0.788233333333     0.811466666667     0.565066666667     0          
C26      C      0.818333333333     0.882966666667     0.577826666667     0          
C27      C      0.807433333333     0.447166666667     0.632596666667     0          
H28      H      0.796433333333     0.470366666667     0.627166666667     0          
C29      C      0.835833333333     0.459266666667     0.650446666667     0          
H30      H      0.844333333333     0.491766666667     0.656766666667     0          
C31      C      0.949633333333     0.431166666667     0.716836666667     0          
C32      C      0.929933333333     0.376766666667     0.709766666667     0          
H33      H      0.907133333333     0.365066666667     0.698966666667     0          
C34      C      0.942933333333     0.343866666667     0.717766666667     0          
H35      H      0.928433333333     0.308366666667     0.713066666667     0          
C36      C      0.979333333333     0.361266666667     0.733666666667     0          
H37      H      0.990433333333     0.337566666667     0.738566666667     0          
C38      C      0.998133333333     0.409966666667     0.742066666667     0          
H39      H      0.019933333333     0.418166666667     0.753066666667     0          
C40      C      0.986033333333     0.449866666667     0.734766666667     0          
C41      C      0.125233333333     0.519866666667     0.794326666667     0          
H42      H      0.112733333333     0.484966666667     0.789266666667     0          
C43      C      0.164533333333     0.539966666667     0.809756666667     0          
H44      H      0.177533333333     0.517866666667     0.814666666667     0          
H45      H      0.274993333333     0.090076666667     0.816836666667     0          
H46      H      0.510533333333     0.208436666667     0.922096666667     0          
Zr47     Zr     0.749653333333     0.374826666667     0.530516666667     0          
O48      O      0.760493333333     0.380246666667     0.563006666667     0          
C49      C      0.768173333333     0.384086666667     0.604766666667     0          
C50      C      0.796833333333     0.398416666667     0.623706666667     0          
C51      C      0.850933333333     0.425466666667     0.658466666667     0          
C52      C      0.879733333333     0.439866666667     0.677566666667     0          
C53      C      0.903333333333     0.451666666667     0.691466666667     0          
C54      C      0.935733333333     0.467866666667     0.709506666667     0          
C55      C      0.000933333333     0.500466666667     0.741806666667     0          
C56      C      0.038333333333     0.519166666667     0.758956666667     0          
C57      C      0.066133333333     0.533066666667     0.771466666667     0          
C58      C      0.106133333333     0.553066666667     0.787016666667     0          
C59      C      0.222693333333     0.611346666667     0.833386666667     0          
C60      C      0.183293333333     0.591646666667     0.817256666667     0          
Zr61     Zr     0.708193333333     0.416386666667     0.571616666667     0          
O62      O      0.701693333333     0.403386666667     0.542436666667     0          
O1       O      0.789943333333     0.487106666667     0.563536666667     0          
O2       O      0.817003333333     0.459266666667     0.537016666667     0          
O3       O      0.421663333333     0.660206666667     0.839286666667     0          
O4       O      0.663673333333     0.420786666667     0.597326666667     0          
C5       C      0.821293333333     0.494996666667     0.549386666667     0          
C6       C      0.868993333333     0.552156666667     0.546816666667     0          
C7       C      0.906803333333     0.563166666667     0.532816666667     0          
H8       H      0.903033333333     0.534766666667     0.524866666667     0          
C9       C      0.951533333333     0.616166666667     0.529946666667     0          
H10      H      0.976933333333     0.622866666667     0.520266666667     0          
C11      C      0.957133333333     0.657966666667     0.541566666667     0          
C12      C      0.916133333333     0.647566666667     0.554946666667     0          
H13      H      0.917533333333     0.676466666667     0.561866666667     0          
C14      C      0.873133333333     0.594266666667     0.558026666667     0          
H15      H      0.847333333333     0.587366666667     0.567566666667     0          
C16      C      0.001333333333     0.713266666667     0.539826666667     0          
C17      C      0.040933333333     0.757766666667     0.537836666667     0          
C18      C      0.089933333333     0.810366666667     0.536576666667     0          
C19      C      0.128633333333     0.819466666667     0.522936666667     0          
C20      C      0.121533333333     0.780566666667     0.508616666667     0          
H21      H      0.089233333333     0.746766666667     0.508866666667     0          
C22      C      0.157933333333     0.789366666667     0.494946666667     0          
C23      C      0.097133333333     0.851266666667     0.550226666667     0          
C24      C      0.056433333333     0.844366666667     0.564806666667     0          
H25      H      0.023233333333     0.811466666667     0.565066666667     0          
C26      C      0.064633333333     0.882966666667     0.577826666667     0          
C27      C      0.639733333333     0.447166666667     0.632596666667     0          
H28      H      0.673933333333     0.470366666667     0.627166666667     0          
C29      C      0.623433333333     0.459266666667     0.650446666667     0          
H30      H      0.647433333333     0.491766666667     0.656766666667     0          
C31      C      0.481533333333     0.431166666667     0.716836666667     0          
C32      C      0.446833333333     0.376766666667     0.709766666667     0          
H33      H      0.457933333333     0.365066666667     0.698966666667     0          
C34      C      0.400933333333     0.343866666667     0.717766666667     0          
H35      H      0.379933333333     0.308366666667     0.713066666667     0          
C36      C      0.381933333333     0.361266666667     0.733666666667     0          
H37      H      0.347133333333     0.337566666667     0.738566666667     0          
C38      C      0.411833333333     0.409966666667     0.742066666667     0          
H39      H      0.398233333333     0.418166666667     0.753066666667     0          
C40      C      0.463833333333     0.449866666667     0.734766666667     0          
C41      C      0.394633333333     0.519866666667     0.794326666667     0          
H42      H      0.372233333333     0.484966666667     0.789266666667     0          
C43      C      0.375433333333     0.539966666667     0.809756666667     0          
H44      H      0.340333333333     0.517866666667     0.814666666667     0          
H45      H      0.815083333333     0.090076666667     0.816836666667     0          
H46      H      0.697903333333     0.208436666667     0.922096666667     0          
O1       O      0.512893333333     0.302836666667     0.563536666667     0          
O2       O      0.540733333333     0.357736666667     0.537016666667     0          
O3       O      0.339793333333     0.761456666667     0.839286666667     0          
O4       O      0.579213333333     0.242886666667     0.597326666667     0          
C5       C      0.505003333333     0.326296666667     0.549386666667     0          
C6       C      0.447843333333     0.316836666667     0.546816666667     0          
C7       C      0.436833333333     0.343636666667     0.532816666667     0          
H8       H      0.465233333333     0.368266666667     0.524866666667     0          
C9       C      0.383833333333     0.335366666667     0.529946666667     0          
H10      H      0.377133333333     0.354066666667     0.520266666667     0          
C11      C      0.342033333333     0.299166666667     0.541566666667     0          
C12      C      0.352433333333     0.268566666667     0.554946666667     0          
H13      H      0.323533333333     0.241066666667     0.561866666667     0          
C14      C      0.405733333333     0.278866666667     0.558026666667     0          
H15      H      0.412633333333     0.259966666667     0.567566666667     0          
C16      C      0.286733333333     0.288066666667     0.539826666667     0          
C17      C      0.242233333333     0.283166666667     0.537836666667     0          
C18      C      0.189633333333     0.279566666667     0.536576666667     0          
C19      C      0.180533333333     0.309166666667     0.522936666667     0          
C20      C      0.219433333333     0.340966666667     0.508616666667     0          
H21      H      0.253233333333     0.342466666667     0.508866666667     0          
C22      C      0.210633333333     0.368566666667     0.494946666667     0          
C23      C      0.148733333333     0.245866666667     0.550226666667     0          
C24      C      0.155633333333     0.212066666667     0.564806666667     0          
H25      H      0.188533333333     0.211766666667     0.565066666667     0          
C26      C      0.117033333333     0.181666666667     0.577826666667     0          
C27      C      0.552833333333     0.192566666667     0.632596666667     0          
H28      H      0.529633333333     0.203566666667     0.627166666667     0          
C29      C      0.540733333333     0.164166666667     0.650446666667     0          
H30      H      0.508233333333     0.155666666667     0.656766666667     0          
C31      C      0.568833333333     0.050366666667     0.716836666667     0          
C32      C      0.623233333333     0.070066666667     0.709766666667     0          
H33      H      0.634933333333     0.092866666667     0.698966666667     0          
C34      C      0.656133333333     0.057066666667     0.717766666667     0          
H35      H      0.691633333333     0.071566666667     0.713066666667     0          
C36      C      0.638733333333     0.020666666667     0.733666666667     0          
H37      H      0.662433333333     0.009566666667     0.738566666667     0          
C38      C      0.590033333333     0.001866666667     0.742066666667     0          
H39      H      0.581833333333     0.980066666667     0.753066666667     0          
C40      C      0.550133333333     0.013966666667     0.734766666667     0          
C41      C      0.480133333333     0.874766666667     0.794326666667     0          
H42      H      0.515033333333     0.887266666667     0.789266666667     0          
C43      C      0.460033333333     0.835466666667     0.809756666667     0          
H44      H      0.482133333333     0.822466666667     0.814666666667     0          
H45      H      0.909923333333     0.725006666667     0.816836666667     0          
H46      H      0.791563333333     0.489466666667     0.922096666667     0          
O1       O      0.697163333333     0.210056666667     0.563536666667     0          
O2       O      0.642263333333     0.182996666667     0.537016666667     0          
O3       O      0.238543333333     0.578336666667     0.839286666667     0          
O4       O      0.757113333333     0.336326666667     0.597326666667     0          
C5       C      0.673703333333     0.178706666667     0.549386666667     0          
C6       C      0.683163333333     0.131006666667     0.546816666667     0          
C7       C      0.656363333333     0.093196666667     0.532816666667     0          
H8       H      0.631733333333     0.096966666667     0.524866666667     0          
C9       C      0.664633333333     0.048466666667     0.529946666667     0          
H10      H      0.645933333333     0.023066666667     0.520266666667     0          
C11      C      0.700833333333     0.042866666667     0.541566666667     0          
C12      C      0.731433333333     0.083866666667     0.554946666667     0          
H13      H      0.758933333333     0.082466666667     0.561866666667     0          
C14      C      0.721133333333     0.126866666667     0.558026666667     0          
H15      H      0.740033333333     0.152666666667     0.567566666667     0          
C16      C      0.711933333333     0.998666666667     0.539826666667     0          
C17      C      0.716833333333     0.959066666667     0.537836666667     0          
C18      C      0.720433333333     0.910066666667     0.536576666667     0          
C19      C      0.690833333333     0.871366666667     0.522936666667     0          
C20      C      0.659033333333     0.878466666667     0.508616666667     0          
H21      H      0.657533333333     0.910766666667     0.508866666667     0          
C22      C      0.631433333333     0.842066666667     0.494946666667     0          
C23      C      0.754133333333     0.902866666667     0.550226666667     0          
C24      C      0.787933333333     0.943566666667     0.564806666667     0          
H25      H      0.788233333333     0.976766666667     0.565066666667     0          
C26      C      0.818333333333     0.935366666667     0.577826666667     0          
C27      C      0.807433333333     0.360266666667     0.632596666667     0          
H28      H      0.796433333333     0.326066666667     0.627166666667     0          
C29      C      0.835833333333     0.376566666667     0.650446666667     0          
H30      H      0.844333333333     0.352566666667     0.656766666667     0          
C31      C      0.949633333333     0.518466666667     0.716836666667     0          
C32      C      0.929933333333     0.553166666667     0.709766666667     0          
H33      H      0.907133333333     0.542066666667     0.698966666667     0          
C34      C      0.942933333333     0.599066666667     0.717766666667     0          
H35      H      0.928433333333     0.620066666667     0.713066666667     0          
C36      C      0.979333333333     0.618066666667     0.733666666667     0          
H37      H      0.990433333333     0.652866666667     0.738566666667     0          
C38      C      0.998133333333     0.588166666667     0.742066666667     0          
H39      H      0.019933333333     0.601766666667     0.753066666667     0          
C40      C      0.986033333333     0.536166666667     0.734766666667     0          
C41      C      0.125233333333     0.605366666667     0.794326666667     0          
H42      H      0.112733333333     0.627766666667     0.789266666667     0          
C43      C      0.164533333333     0.624566666667     0.809756666667     0          
H44      H      0.177533333333     0.659666666667     0.814666666667     0          
H45      H      0.274993333333     0.184916666667     0.816836666667     0          
H46      H      0.510533333333     0.302096666667     0.922096666667     0          
O1       O      0.153773333333     0.123276666667     0.769796666667     0          
O2       O      0.125933333333     0.150336666667     0.796316666667     0          
O3       O      0.326873333333     0.754996666667     0.494046666667     0          
O4       O      0.087453333333     0.997006666667     0.736006666667     0          
C5       C      0.161663333333     0.154626666667     0.783946666667     0          
C6       C      0.218823333333     0.202326666667     0.786516666667     0          
C7       C      0.229833333333     0.240136666667     0.800516666667     0          
H8       H      0.201433333333     0.236366666667     0.808466666667     0          
C9       C      0.282833333333     0.284866666667     0.803386666667     0          
H10      H      0.289533333333     0.310266666667     0.813066666667     0          
C11      C      0.324633333333     0.290466666667     0.791766666667     0          
C12      C      0.314233333333     0.249466666667     0.778386666667     0          
H13      H      0.343133333333     0.250866666667     0.771466666667     0          
C14      C      0.260933333333     0.206466666667     0.775306666667     0          
H15      H      0.254033333333     0.180666666667     0.765766666667     0          
C16      C      0.379933333333     0.334666666667     0.793506666667     0          
C17      C      0.424433333333     0.374266666667     0.795496666667     0          
C18      C      0.477033333333     0.423266666667     0.796756666667     0          
C19      C      0.486133333333     0.461966666667     0.810396666667     0          
C20      C      0.447233333333     0.454866666667     0.824716666667     0          
H21      H      0.413433333333     0.422566666667     0.824466666667     0          
C22      C      0.456033333333     0.491266666667     0.838386666667     0          
C23      C      0.517933333333     0.430466666667     0.783106666667     0          
C24      C      0.511033333333     0.389766666667     0.768526666667     0          
H25      H      0.478133333333     0.356566666667     0.768266666667     0          
C26      C      0.549633333333     0.397966666667     0.755506666667     0          
C27      C      0.113833333333     0.973066666667     0.700736666667     0          
H28      H      0.137033333333     0.007266666667     0.706166666667     0          
C29      C      0.125933333333     0.956766666667     0.682886666667     0          
H30      H      0.158433333333     0.980766666667     0.676566666667     0          
C31      C      0.097833333333     0.814866666667     0.616496666667     0          
C32      C      0.043433333333     0.780166666667     0.623566666667     0          
H33      H      0.031733333333     0.791266666667     0.634366666667     0          
C34      C      0.010533333333     0.734266666667     0.615566666667     0          
H35      H      0.975033333333     0.713266666667     0.620266666667     0          
C36      C      0.027933333333     0.715266666667     0.599666666667     0          
H37      H      0.004233333333     0.680466666667     0.594766666667     0          
C38      C      0.076633333333     0.745166666667     0.591266666667     0          
H39      H      0.084833333333     0.731566666667     0.580266666667     0          
C40      C      0.116533333333     0.797166666667     0.598566666667     0          
C41      C      0.186533333333     0.727966666667     0.539006666667     0          
H42      H      0.151633333333     0.705566666667     0.544066666667     0          
C43      C      0.206633333333     0.708766666667     0.523576666667     0          
H44      H      0.184533333333     0.673666666667     0.518666666667     0          
H45      H      0.756743333333     0.148416666667     0.516496666667     0          
H46      H      0.875103333333     0.031236666667     0.411236666667     0          
O1       O      0.876723333333     0.030496666667     0.769796666667     0          
O2       O      0.849663333333     0.975596666667     0.796316666667     0          
O3       O      0.245003333333     0.571876666667     0.494046666667     0          
O4       O      0.002993333333     0.090446666667     0.736006666667     0          
C5       C      0.845373333333     0.007036666667     0.783946666667     0          
C6       C      0.797673333333     0.016496666667     0.786516666667     0          
C7       C      0.759863333333     0.989696666667     0.800516666667     0          
H8       H      0.763633333333     0.965066666667     0.808466666667     0          
C9       C      0.715133333333     0.997966666667     0.803386666667     0          
H10      H      0.689733333333     0.979266666667     0.813066666667     0          
C11      C      0.709533333333     0.034166666667     0.791766666667     0          
C12      C      0.750533333333     0.064766666667     0.778386666667     0          
H13      H      0.749133333333     0.092266666667     0.771466666667     0          
C14      C      0.793533333333     0.054466666667     0.775306666667     0          
H15      H      0.819333333333     0.073366666667     0.765766666667     0          
C16      C      0.665333333333     0.045266666667     0.793506666667     0          
C17      C      0.625733333333     0.050166666667     0.795496666667     0          
C18      C      0.576733333333     0.053766666667     0.796756666667     0          
C19      C      0.538033333333     0.024166666667     0.810396666667     0          
C20      C      0.545133333333     0.992366666667     0.824716666667     0          
H21      H      0.577433333333     0.990866666667     0.824466666667     0          
C22      C      0.508733333333     0.964766666667     0.838386666667     0          
C23      C      0.569533333333     0.087466666667     0.783106666667     0          
C24      C      0.610233333333     0.121266666667     0.768526666667     0          
H25      H      0.643433333333     0.121566666667     0.768266666667     0          
C26      C      0.602033333333     0.151666666667     0.755506666667     0          
C27      C      0.026933333333     0.140766666667     0.700736666667     0          
H28      H      0.992733333333     0.129766666667     0.706166666667     0          
C29      C      0.043233333333     0.169166666667     0.682886666667     0          
H30      H      0.019233333333     0.177666666667     0.676566666667     0          
C31      C      0.185133333333     0.282966666667     0.616496666667     0          
C32      C      0.219833333333     0.263266666667     0.623566666667     0          
H33      H      0.208733333333     0.240466666667     0.634366666667     0          
C34      C      0.265733333333     0.276266666667     0.615566666667     0          
H35      H      0.286733333333     0.261766666667     0.620266666667     0          
C36      C      0.284733333333     0.312666666667     0.599666666667     0          
H37      H      0.319533333333     0.323766666667     0.594766666667     0          
C38      C      0.254833333333     0.331466666667     0.591266666667     0          
H39      H      0.268433333333     0.353266666667     0.580266666667     0          
C40      C      0.202833333333     0.319366666667     0.598566666667     0          
C41      C      0.272033333333     0.458566666667     0.539006666667     0          
H42      H      0.294433333333     0.446066666667     0.544066666667     0          
C43      C      0.291233333333     0.497866666667     0.523576666667     0          
H44      H      0.326333333333     0.510866666667     0.518666666667     0          
H45      H      0.851583333333     0.608326666667     0.516496666667     0          
H46      H      0.968763333333     0.843866666667     0.411236666667     0          
O1       O      0.969503333333     0.846226666667     0.769796666667     0          
O2       O      0.024403333333     0.874066666667     0.796316666667     0          
O3       O      0.428123333333     0.673126666667     0.494046666667     0          
O4       O      0.909553333333     0.912546666667     0.736006666667     0          
C5       C      0.992963333333     0.838336666667     0.783946666667     0          
C6       C      0.983503333333     0.781176666667     0.786516666667     0          
C7       C      0.010303333333     0.770166666667     0.800516666667     0          
H8       H      0.034933333333     0.798566666667     0.808466666667     0          
C9       C      0.002033333333     0.717166666667     0.803386666667     0          
H10      H      0.020733333333     0.710466666667     0.813066666667     0          
C11      C      0.965833333333     0.675366666667     0.791766666667     0          
C12      C      0.935233333333     0.685766666667     0.778386666667     0          
H13      H      0.907733333333     0.656866666667     0.771466666667     0          
C14      C      0.945533333333     0.739066666667     0.775306666667     0          
H15      H      0.926633333333     0.745966666667     0.765766666667     0          
C16      C      0.954733333333     0.620066666667     0.793506666667     0          
C17      C      0.949833333333     0.575566666667     0.795496666667     0          
C18      C      0.946233333333     0.522966666667     0.796756666667     0          
C19      C      0.975833333333     0.513866666667     0.810396666667     0          
C20      C      0.007633333333     0.552766666667     0.824716666667     0          
H21      H      0.009133333333     0.586566666667     0.824466666667     0          
C22      C      0.035233333333     0.543966666667     0.838386666667     0          
C23      C      0.912533333333     0.482066666667     0.783106666667     0          
C24      C      0.878733333333     0.488966666667     0.768526666667     0          
H25      H      0.878433333333     0.521866666667     0.768266666667     0          
C26      C      0.848333333333     0.450366666667     0.755506666667     0          
C27      C      0.859233333333     0.886166666667     0.700736666667     0          
H28      H      0.870233333333     0.862966666667     0.706166666667     0          
C29      C      0.830833333333     0.874066666667     0.682886666667     0          
H30      H      0.822333333333     0.841566666667     0.676566666667     0          
C31      C      0.717033333333     0.902166666667     0.616496666667     0          
C32      C      0.736733333333     0.956566666667     0.623566666667     0          
H33      H      0.759533333333     0.968266666667     0.634366666667     0          
C34      C      0.723733333333     0.989466666667     0.615566666667     0          
H35      H      0.738233333333     0.024966666667     0.620266666667     0          
C36      C      0.687333333333     0.972066666667     0.599666666667     0          
H37      H      0.676233333333     0.995766666667     0.594766666667     0          
C38      C      0.668533333333     0.923366666667     0.591266666667     0          
H39      H      0.646733333333     0.915166666667     0.580266666667     0          
C40      C      0.680633333333     0.883466666667     0.598566666667     0          
C41      C      0.541433333333     0.813466666667     0.539006666667     0          
H42      H      0.553933333333     0.848366666667     0.544066666667     0          
C43      C      0.502133333333     0.793366666667     0.523576666667     0          
H44      H      0.489133333333     0.815466666667     0.518666666667     0          
H45      H      0.391673333333     0.243256666667     0.516496666667     0          
H46      H      0.156133333333     0.124896666667     0.411236666667     0          


