data_NAVPAE

_audit_creation_method RASPA-1.0
_audit_creation_date 2020-11-2
_audit_author_name 'Rocio Bueno-Perez'

_cell_length_a    19.677
_cell_length_b    19.677
_cell_length_c    54.778
_cell_angle_alpha 90
_cell_angle_beta  90
_cell_angle_gamma 120
_cell_volume      18367.7

_symmetry_cell_setting          trigonal
_symmetry_space_group_name_Hall 'P 1'
_symmetry_space_group_name_H-M  'P 1'
_symmetry_Int_Tables_number     1

_symmetry_equiv_pos_as_xyz 'x,y,z'

loop_
_atom_site_label
_atom_site_type_symbol
_atom_site_fract_x
_atom_site_fract_y
_atom_site_fract_z
_atom_site_charge
Zr1      Zr     0.540740000000     0.742920000000     0.010460000000     0          
O1       O      0.521880000000     0.731460000000     0.968750000000     0          
O2       O      0.625250000000     0.833410000000     0.984120000000     0          
C1       C      0.581600000000     0.799200000000     0.965560000000     0          
C2       C      0.598700000000     0.839600000000     0.941490000000     0          
C3       C      0.648200000000     0.920900000000     0.939920000000     0          
H1       H      0.672600000000     0.950600000000     0.954200000000     0          
C4       C      0.661700000000     0.958300000000     0.917410000000     0          
H2       H      0.692000000000     0.013900000000     0.916500000000     0          
C5       C      0.631100000000     0.914400000000     0.896220000000     0          
H3       H      0.643500000000     0.939600000000     0.880800000000     0          
C6       C      0.582300000000     0.833700000000     0.897760000000     0          
H4       H      0.560700000000     0.803800000000     0.883300000000     0          
C7       C      0.564600000000     0.795700000000     0.920630000000     0          
H5       H      0.529800000000     0.740800000000     0.921700000000     0          
Zr2      Zr     0.795940000000     0.868910000000     0.152360000000     0          
O3       O      0.820900000000     0.888300000000     0.193570000000     0          
O4       O      0.706990000000     0.860500000000     0.179120000000     0          
C8       C      0.751600000000     0.872100000000     0.197400000000     0          
C9       C      0.720800000000     0.860300000000     0.222270000000     0          
C10      C      0.772600000000     0.876000000000     0.242140000000     0          
H6       H      0.826900000000     0.895900000000     0.239200000000     0          
C11      C      0.744800000000     0.862800000000     0.265480000000     0          
H7       H      0.779700000000     0.874500000000     0.278800000000     0          
C12      C      0.669500000000     0.833900000000     0.269350000000     0          
H8       H      0.651400000000     0.824800000000     0.285700000000     0          
C13      C      0.613300000000     0.815200000000     0.250350000000     0          
H9       H      0.559100000000     0.793500000000     0.253900000000     0          
C14      C      0.641200000000     0.830100000000     0.226160000000     0          
H10      H      0.606400000000     0.819700000000     0.212900000000     0          
O5       O      0.634860000000     0.810930000000     0.031750000000     0          
O6       O      0.490060000000     0.716840000000     0.045290000000     0          
O7       O      0.457510000000     0.734300000000     0.082670000000     0          
O8       O      0.704340000000     0.844460000000     0.130400000000     0          
O9       O      0.848430000000     0.884110000000     0.117260000000     0          
O10      O      0.882700000000     0.907200000000     0.078560000000     0          
C15      C      0.650440000000     0.814450000000     0.055560000000     0          
C16      C      0.592280000000     0.787800000000     0.073520000000     0          
C17      C      0.611730000000     0.798600000000     0.098320000000     0          
H11      H      0.570900000000     0.781500000000     0.110100000000     0          
C18      C      0.689370000000     0.833780000000     0.106300000000     0          
C19      C      0.748000000000     0.855820000000     0.088110000000     0          
C20      C      0.728130000000     0.847230000000     0.063060000000     0          
H12      H      0.768500000000     0.864100000000     0.051200000000     0          
C21      C      0.508100000000     0.744000000000     0.067380000000     0          
C22      C      0.830800000000     0.884300000000     0.094340000000     0          
O11      O      0.570240000000     0.659550000000     0.007730000000     0          
O12      O      0.674430000000     0.482880000000     0.993190000000     0          
O13      O      0.575980000000     0.361790000000     0.994150000000     0          
C23      C      0.534790000000     0.582420000000     0.003600000000     0          
C24      C      0.580850000000     0.547040000000     0.000870000000     0          
H13      H      0.636400000000     0.579100000000     0.001400000000     0          
C25      C      0.548270000000     0.466510000000     0.997460000000     0          
C26      C      0.602000000000     0.434610000000     0.994900000000     0          
O14      O      0.765110000000     0.756460000000     0.157130000000     0          
O15      O      0.007550000000     0.854680000000     0.153670000000     0          
O16      O      0.912130000000     0.880450000000     0.157780000000     0          
C27      C      0.799610000000     0.714350000000     0.162100000000     0          
C28      C      0.752580000000     0.634450000000     0.167260000000     0          
H14      H      0.697200000000     0.612200000000     0.167900000000     0          
C29      C      0.881800000000     0.746850000000     0.161900000000     0          
C30      C      0.936340000000     0.832420000000     0.157270000000     0          
Zr1      Zr     0.257080000000     0.797820000000     0.010460000000     0          
O1       O      0.268540000000     0.790420000000     0.968750000000     0          
O2       O      0.166590000000     0.791840000000     0.984120000000     0          
C1       C      0.200800000000     0.782400000000     0.965560000000     0          
C2       C      0.160400000000     0.759100000000     0.941490000000     0          
C3       C      0.079100000000     0.727300000000     0.939920000000     0          
H1       H      0.049400000000     0.722000000000     0.954200000000     0          
C4       C      0.041700000000     0.703400000000     0.917410000000     0          
H2       H      0.986100000000     0.678100000000     0.916500000000     0          
C5       C      0.085600000000     0.716700000000     0.896220000000     0          
H3       H      0.060400000000     0.703900000000     0.880800000000     0          
C6       C      0.166300000000     0.748600000000     0.897760000000     0          
H4       H      0.196200000000     0.756900000000     0.883300000000     0          
C7       C      0.204300000000     0.768900000000     0.920630000000     0          
H5       H      0.259200000000     0.789000000000     0.921700000000     0          
Zr2      Zr     0.131090000000     0.927030000000     0.152360000000     0          
O3       O      0.111700000000     0.932600000000     0.193570000000     0          
O4       O      0.139500000000     0.846490000000     0.179120000000     0          
C8       C      0.127900000000     0.879500000000     0.197400000000     0          
C9       C      0.139700000000     0.860500000000     0.222270000000     0          
C10      C      0.124000000000     0.896600000000     0.242140000000     0          
H6       H      0.104100000000     0.931000000000     0.239200000000     0          
C11      C      0.137200000000     0.882000000000     0.265480000000     0          
H7       H      0.125500000000     0.905200000000     0.278800000000     0          
C12      C      0.166100000000     0.835600000000     0.269350000000     0          
H8       H      0.175200000000     0.826600000000     0.285700000000     0          
C13      C      0.184800000000     0.798100000000     0.250350000000     0          
H9       H      0.206500000000     0.765600000000     0.253900000000     0          
C14      C      0.169900000000     0.811100000000     0.226160000000     0          
H10      H      0.180300000000     0.786700000000     0.212900000000     0          
O5       O      0.189070000000     0.823930000000     0.031750000000     0          
O6       O      0.283160000000     0.773220000000     0.045290000000     0          
O7       O      0.265700000000     0.723210000000     0.082670000000     0          
O8       O      0.155540000000     0.859880000000     0.130400000000     0          
O9       O      0.115890000000     0.964320000000     0.117260000000     0          
O10      O      0.092800000000     0.975500000000     0.078560000000     0          
C15      C      0.185550000000     0.835990000000     0.055560000000     0          
C16      C      0.212200000000     0.804480000000     0.073520000000     0          
C17      C      0.201400000000     0.813130000000     0.098320000000     0          
H11      H      0.218500000000     0.789400000000     0.110100000000     0          
C18      C      0.166220000000     0.855590000000     0.106300000000     0          
C19      C      0.144180000000     0.892180000000     0.088110000000     0          
C20      C      0.152770000000     0.880900000000     0.063060000000     0          
H12      H      0.135900000000     0.904400000000     0.051200000000     0          
C21      C      0.256000000000     0.764100000000     0.067380000000     0          
C22      C      0.115700000000     0.946500000000     0.094340000000     0          
O11      O      0.340450000000     0.910690000000     0.007730000000     0          
O12      O      0.517120000000     0.191550000000     0.993190000000     0          
O13      O      0.638210000000     0.214190000000     0.994150000000     0          
C23      C      0.417580000000     0.952370000000     0.003600000000     0          
C24      C      0.452960000000     0.033810000000     0.000870000000     0          
H13      H      0.420900000000     0.057300000000     0.001400000000     0          
C25      C      0.533490000000     0.081760000000     0.997460000000     0          
C26      C      0.565390000000     0.167390000000     0.994900000000     0          
O14      O      0.243540000000     0.008650000000     0.157130000000     0          
O15      O      0.145320000000     0.152870000000     0.153670000000     0          
O16      O      0.119550000000     0.031680000000     0.157780000000     0          
C27      C      0.285650000000     0.085260000000     0.162100000000     0          
C28      C      0.365550000000     0.118130000000     0.167260000000     0          
H14      H      0.387800000000     0.085000000000     0.167900000000     0          
C29      C      0.253150000000     0.134950000000     0.161900000000     0          
C30      C      0.167580000000     0.103920000000     0.157270000000     0          
Zr1      Zr     0.202180000000     0.459260000000     0.010460000000     0          
O1       O      0.209580000000     0.478120000000     0.968750000000     0          
O2       O      0.208160000000     0.374750000000     0.984120000000     0          
C1       C      0.217600000000     0.418400000000     0.965560000000     0          
C2       C      0.240900000000     0.401300000000     0.941490000000     0          
C3       C      0.272700000000     0.351800000000     0.939920000000     0          
H1       H      0.278000000000     0.327400000000     0.954200000000     0          
C4       C      0.296600000000     0.338300000000     0.917410000000     0          
H2       H      0.321900000000     0.308000000000     0.916500000000     0          
C5       C      0.283300000000     0.368900000000     0.896220000000     0          
H3       H      0.296100000000     0.356500000000     0.880800000000     0          
C6       C      0.251400000000     0.417700000000     0.897760000000     0          
H4       H      0.243100000000     0.439300000000     0.883300000000     0          
C7       C      0.231100000000     0.435400000000     0.920630000000     0          
H5       H      0.211000000000     0.470200000000     0.921700000000     0          
Zr2      Zr     0.072970000000     0.204060000000     0.152360000000     0          
O3       O      0.067400000000     0.179100000000     0.193570000000     0          
O4       O      0.153510000000     0.293010000000     0.179120000000     0          
C8       C      0.120500000000     0.248400000000     0.197400000000     0          
C9       C      0.139500000000     0.279200000000     0.222270000000     0          
C10      C      0.103400000000     0.227400000000     0.242140000000     0          
H6       H      0.069000000000     0.173100000000     0.239200000000     0          
C11      C      0.118000000000     0.255200000000     0.265480000000     0          
H7       H      0.094800000000     0.220300000000     0.278800000000     0          
C12      C      0.164400000000     0.330500000000     0.269350000000     0          
H8       H      0.173400000000     0.348600000000     0.285700000000     0          
C13      C      0.201900000000     0.386700000000     0.250350000000     0          
H9       H      0.234400000000     0.440900000000     0.253900000000     0          
C14      C      0.188900000000     0.358800000000     0.226160000000     0          
H10      H      0.213300000000     0.393600000000     0.212900000000     0          
O5       O      0.176070000000     0.365140000000     0.031750000000     0          
O6       O      0.226780000000     0.509940000000     0.045290000000     0          
O7       O      0.276790000000     0.542490000000     0.082670000000     0          
O8       O      0.140120000000     0.295660000000     0.130400000000     0          
O9       O      0.035680000000     0.151570000000     0.117260000000     0          
O10      O      0.024500000000     0.117300000000     0.078560000000     0          
C15      C      0.164010000000     0.349560000000     0.055560000000     0          
C16      C      0.195520000000     0.407720000000     0.073520000000     0          
C17      C      0.186870000000     0.388270000000     0.098320000000     0          
H11      H      0.210600000000     0.429100000000     0.110100000000     0          
C18      C      0.144410000000     0.310630000000     0.106300000000     0          
C19      C      0.107820000000     0.252000000000     0.088110000000     0          
C20      C      0.119100000000     0.271870000000     0.063060000000     0          
H12      H      0.095600000000     0.231500000000     0.051200000000     0          
C21      C      0.235900000000     0.491900000000     0.067380000000     0          
C22      C      0.053500000000     0.169200000000     0.094340000000     0          
O11      O      0.089310000000     0.429760000000     0.007730000000     0          
O12      O      0.808450000000     0.325570000000     0.993190000000     0          
O13      O      0.785810000000     0.424020000000     0.994150000000     0          
C23      C      0.047630000000     0.465210000000     0.003600000000     0          
C24      C      0.966190000000     0.419150000000     0.000870000000     0          
H13      H      0.942700000000     0.363600000000     0.001400000000     0          
C25      C      0.918240000000     0.451730000000     0.997460000000     0          
C26      C      0.832610000000     0.398000000000     0.994900000000     0          
O14      O      0.991350000000     0.234890000000     0.157130000000     0          
O15      O      0.847130000000     0.992450000000     0.153670000000     0          
O16      O      0.968320000000     0.087870000000     0.157780000000     0          
C27      C      0.914740000000     0.200390000000     0.162100000000     0          
C28      C      0.881870000000     0.247420000000     0.167260000000     0          
H14      H      0.915000000000     0.302800000000     0.167900000000     0          
C29      C      0.865050000000     0.118200000000     0.161900000000     0          
C30      C      0.896080000000     0.063660000000     0.157270000000     0          
Zr1      Zr     0.459260000000     0.257080000000     0.989540000000     0          
O1       O      0.478120000000     0.268540000000     0.031250000000     0          
O2       O      0.374750000000     0.166590000000     0.015880000000     0          
C1       C      0.418400000000     0.200800000000     0.034440000000     0          
C2       C      0.401300000000     0.160400000000     0.058510000000     0          
C3       C      0.351800000000     0.079100000000     0.060080000000     0          
H1       H      0.327400000000     0.049400000000     0.045800000000     0          
C4       C      0.338300000000     0.041700000000     0.082590000000     0          
H2       H      0.308000000000     0.986100000000     0.083500000000     0          
C5       C      0.368900000000     0.085600000000     0.103780000000     0          
H3       H      0.356500000000     0.060400000000     0.119200000000     0          
C6       C      0.417700000000     0.166300000000     0.102240000000     0          
H4       H      0.439300000000     0.196200000000     0.116700000000     0          
C7       C      0.435400000000     0.204300000000     0.079370000000     0          
H5       H      0.470200000000     0.259200000000     0.078300000000     0          
Zr2      Zr     0.204060000000     0.131090000000     0.847640000000     0          
O3       O      0.179100000000     0.111700000000     0.806430000000     0          
O4       O      0.293010000000     0.139500000000     0.820880000000     0          
C8       C      0.248400000000     0.127900000000     0.802600000000     0          
C9       C      0.279200000000     0.139700000000     0.777730000000     0          
C10      C      0.227400000000     0.124000000000     0.757860000000     0          
H6       H      0.173100000000     0.104100000000     0.760800000000     0          
C11      C      0.255200000000     0.137200000000     0.734520000000     0          
H7       H      0.220300000000     0.125500000000     0.721200000000     0          
C12      C      0.330500000000     0.166100000000     0.730650000000     0          
H8       H      0.348600000000     0.175200000000     0.714300000000     0          
C13      C      0.386700000000     0.184800000000     0.749650000000     0          
H9       H      0.440900000000     0.206500000000     0.746100000000     0          
C14      C      0.358800000000     0.169900000000     0.773840000000     0          
H10      H      0.393600000000     0.180300000000     0.787100000000     0          
O5       O      0.365140000000     0.189070000000     0.968250000000     0          
O6       O      0.509940000000     0.283160000000     0.954710000000     0          
O7       O      0.542490000000     0.265700000000     0.917330000000     0          
O8       O      0.295660000000     0.155540000000     0.869600000000     0          
O9       O      0.151570000000     0.115890000000     0.882740000000     0          
O10      O      0.117300000000     0.092800000000     0.921440000000     0          
C15      C      0.349560000000     0.185550000000     0.944440000000     0          
C16      C      0.407720000000     0.212200000000     0.926480000000     0          
C17      C      0.388270000000     0.201400000000     0.901680000000     0          
H11      H      0.429100000000     0.218500000000     0.889900000000     0          
C18      C      0.310630000000     0.166220000000     0.893700000000     0          
C19      C      0.252000000000     0.144180000000     0.911890000000     0          
C20      C      0.271870000000     0.152770000000     0.936940000000     0          
H12      H      0.231500000000     0.135900000000     0.948800000000     0          
C21      C      0.491900000000     0.256000000000     0.932620000000     0          
C22      C      0.169200000000     0.115700000000     0.905660000000     0          
O11      O      0.429760000000     0.340450000000     0.992270000000     0          
O12      O      0.325570000000     0.517120000000     0.006810000000     0          
O13      O      0.424020000000     0.638210000000     0.005850000000     0          
C23      C      0.465210000000     0.417580000000     0.996400000000     0          
C24      C      0.419150000000     0.452960000000     0.999130000000     0          
H13      H      0.363600000000     0.420900000000     0.998600000000     0          
C25      C      0.451730000000     0.533490000000     0.002540000000     0          
C26      C      0.398000000000     0.565390000000     0.005100000000     0          
O14      O      0.234890000000     0.243540000000     0.842870000000     0          
O15      O      0.992450000000     0.145320000000     0.846330000000     0          
O16      O      0.087870000000     0.119550000000     0.842220000000     0          
C27      C      0.200390000000     0.285650000000     0.837900000000     0          
C28      C      0.247420000000     0.365550000000     0.832740000000     0          
H14      H      0.302800000000     0.387800000000     0.832100000000     0          
C29      C      0.118200000000     0.253150000000     0.838100000000     0          
C30      C      0.063660000000     0.167580000000     0.842730000000     0          
Zr1      Zr     0.742920000000     0.202180000000     0.989540000000     0          
O1       O      0.731460000000     0.209580000000     0.031250000000     0          
O2       O      0.833410000000     0.208160000000     0.015880000000     0          
C1       C      0.799200000000     0.217600000000     0.034440000000     0          
C2       C      0.839600000000     0.240900000000     0.058510000000     0          
C3       C      0.920900000000     0.272700000000     0.060080000000     0          
H1       H      0.950600000000     0.278000000000     0.045800000000     0          
C4       C      0.958300000000     0.296600000000     0.082590000000     0          
H2       H      0.013900000000     0.321900000000     0.083500000000     0          
C5       C      0.914400000000     0.283300000000     0.103780000000     0          
H3       H      0.939600000000     0.296100000000     0.119200000000     0          
C6       C      0.833700000000     0.251400000000     0.102240000000     0          
H4       H      0.803800000000     0.243100000000     0.116700000000     0          
C7       C      0.795700000000     0.231100000000     0.079370000000     0          
H5       H      0.740800000000     0.211000000000     0.078300000000     0          
Zr2      Zr     0.868910000000     0.072970000000     0.847640000000     0          
O3       O      0.888300000000     0.067400000000     0.806430000000     0          
O4       O      0.860500000000     0.153510000000     0.820880000000     0          
C8       C      0.872100000000     0.120500000000     0.802600000000     0          
C9       C      0.860300000000     0.139500000000     0.777730000000     0          
C10      C      0.876000000000     0.103400000000     0.757860000000     0          
H6       H      0.895900000000     0.069000000000     0.760800000000     0          
C11      C      0.862800000000     0.118000000000     0.734520000000     0          
H7       H      0.874500000000     0.094800000000     0.721200000000     0          
C12      C      0.833900000000     0.164400000000     0.730650000000     0          
H8       H      0.824800000000     0.173400000000     0.714300000000     0          
C13      C      0.815200000000     0.201900000000     0.749650000000     0          
H9       H      0.793500000000     0.234400000000     0.746100000000     0          
C14      C      0.830100000000     0.188900000000     0.773840000000     0          
H10      H      0.819700000000     0.213300000000     0.787100000000     0          
O5       O      0.810930000000     0.176070000000     0.968250000000     0          
O6       O      0.716840000000     0.226780000000     0.954710000000     0          
O7       O      0.734300000000     0.276790000000     0.917330000000     0          
O8       O      0.844460000000     0.140120000000     0.869600000000     0          
O9       O      0.884110000000     0.035680000000     0.882740000000     0          
O10      O      0.907200000000     0.024500000000     0.921440000000     0          
C15      C      0.814450000000     0.164010000000     0.944440000000     0          
C16      C      0.787800000000     0.195520000000     0.926480000000     0          
C17      C      0.798600000000     0.186870000000     0.901680000000     0          
H11      H      0.781500000000     0.210600000000     0.889900000000     0          
C18      C      0.833780000000     0.144410000000     0.893700000000     0          
C19      C      0.855820000000     0.107820000000     0.911890000000     0          
C20      C      0.847230000000     0.119100000000     0.936940000000     0          
H12      H      0.864100000000     0.095600000000     0.948800000000     0          
C21      C      0.744000000000     0.235900000000     0.932620000000     0          
C22      C      0.884300000000     0.053500000000     0.905660000000     0          
O11      O      0.659550000000     0.089310000000     0.992270000000     0          
O12      O      0.482880000000     0.808450000000     0.006810000000     0          
O13      O      0.361790000000     0.785810000000     0.005850000000     0          
C23      C      0.582420000000     0.047630000000     0.996400000000     0          
C24      C      0.547040000000     0.966190000000     0.999130000000     0          
H13      H      0.579100000000     0.942700000000     0.998600000000     0          
C25      C      0.466510000000     0.918240000000     0.002540000000     0          
C26      C      0.434610000000     0.832610000000     0.005100000000     0          
O14      O      0.756460000000     0.991350000000     0.842870000000     0          
O15      O      0.854680000000     0.847130000000     0.846330000000     0          
O16      O      0.880450000000     0.968320000000     0.842220000000     0          
C27      C      0.714350000000     0.914740000000     0.837900000000     0          
C28      C      0.634450000000     0.881870000000     0.832740000000     0          
H14      H      0.612200000000     0.915000000000     0.832100000000     0          
C29      C      0.746850000000     0.865050000000     0.838100000000     0          
C30      C      0.832420000000     0.896080000000     0.842730000000     0          
Zr1      Zr     0.797820000000     0.540740000000     0.989540000000     0          
O1       O      0.790420000000     0.521880000000     0.031250000000     0          
O2       O      0.791840000000     0.625250000000     0.015880000000     0          
C1       C      0.782400000000     0.581600000000     0.034440000000     0          
C2       C      0.759100000000     0.598700000000     0.058510000000     0          
C3       C      0.727300000000     0.648200000000     0.060080000000     0          
H1       H      0.722000000000     0.672600000000     0.045800000000     0          
C4       C      0.703400000000     0.661700000000     0.082590000000     0          
H2       H      0.678100000000     0.692000000000     0.083500000000     0          
C5       C      0.716700000000     0.631100000000     0.103780000000     0          
H3       H      0.703900000000     0.643500000000     0.119200000000     0          
C6       C      0.748600000000     0.582300000000     0.102240000000     0          
H4       H      0.756900000000     0.560700000000     0.116700000000     0          
C7       C      0.768900000000     0.564600000000     0.079370000000     0          
H5       H      0.789000000000     0.529800000000     0.078300000000     0          
Zr2      Zr     0.927030000000     0.795940000000     0.847640000000     0          
O3       O      0.932600000000     0.820900000000     0.806430000000     0          
O4       O      0.846490000000     0.706990000000     0.820880000000     0          
C8       C      0.879500000000     0.751600000000     0.802600000000     0          
C9       C      0.860500000000     0.720800000000     0.777730000000     0          
C10      C      0.896600000000     0.772600000000     0.757860000000     0          
H6       H      0.931000000000     0.826900000000     0.760800000000     0          
C11      C      0.882000000000     0.744800000000     0.734520000000     0          
H7       H      0.905200000000     0.779700000000     0.721200000000     0          
C12      C      0.835600000000     0.669500000000     0.730650000000     0          
H8       H      0.826600000000     0.651400000000     0.714300000000     0          
C13      C      0.798100000000     0.613300000000     0.749650000000     0          
H9       H      0.765600000000     0.559100000000     0.746100000000     0          
C14      C      0.811100000000     0.641200000000     0.773840000000     0          
H10      H      0.786700000000     0.606400000000     0.787100000000     0          
O5       O      0.823930000000     0.634860000000     0.968250000000     0          
O6       O      0.773220000000     0.490060000000     0.954710000000     0          
O7       O      0.723210000000     0.457510000000     0.917330000000     0          
O8       O      0.859880000000     0.704340000000     0.869600000000     0          
O9       O      0.964320000000     0.848430000000     0.882740000000     0          
O10      O      0.975500000000     0.882700000000     0.921440000000     0          
C15      C      0.835990000000     0.650440000000     0.944440000000     0          
C16      C      0.804480000000     0.592280000000     0.926480000000     0          
C17      C      0.813130000000     0.611730000000     0.901680000000     0          
H11      H      0.789400000000     0.570900000000     0.889900000000     0          
C18      C      0.855590000000     0.689370000000     0.893700000000     0          
C19      C      0.892180000000     0.748000000000     0.911890000000     0          
C20      C      0.880900000000     0.728130000000     0.936940000000     0          
H12      H      0.904400000000     0.768500000000     0.948800000000     0          
C21      C      0.764100000000     0.508100000000     0.932620000000     0          
C22      C      0.946500000000     0.830800000000     0.905660000000     0          
O11      O      0.910690000000     0.570240000000     0.992270000000     0          
O12      O      0.191550000000     0.674430000000     0.006810000000     0          
O13      O      0.214190000000     0.575980000000     0.005850000000     0          
C23      C      0.952370000000     0.534790000000     0.996400000000     0          
C24      C      0.033810000000     0.580850000000     0.999130000000     0          
H13      H      0.057300000000     0.636400000000     0.998600000000     0          
C25      C      0.081760000000     0.548270000000     0.002540000000     0          
C26      C      0.167390000000     0.602000000000     0.005100000000     0          
O14      O      0.008650000000     0.765110000000     0.842870000000     0          
O15      O      0.152870000000     0.007550000000     0.846330000000     0          
O16      O      0.031680000000     0.912130000000     0.842220000000     0          
C27      C      0.085260000000     0.799610000000     0.837900000000     0          
C28      C      0.118130000000     0.752580000000     0.832740000000     0          
H14      H      0.085000000000     0.697200000000     0.832100000000     0          
C29      C      0.134950000000     0.881800000000     0.838100000000     0          
C30      C      0.103920000000     0.936340000000     0.842730000000     0          
Zr1      Zr     0.207406666667     0.076253333333     0.343793333333     0          
O1       O      0.188546666667     0.064793333333     0.302083333333     0          
O2       O      0.291916666667     0.166743333333     0.317453333333     0          
C1       C      0.248266666667     0.132533333333     0.298893333333     0          
C2       C      0.265366666667     0.172933333333     0.274823333333     0          
C3       C      0.314866666667     0.254233333333     0.273253333333     0          
H1       H      0.339266666667     0.283933333333     0.287533333333     0          
C4       C      0.328366666667     0.291633333333     0.250743333333     0          
H2       H      0.358666666667     0.347233333333     0.249833333333     0          
C5       C      0.297766666667     0.247733333333     0.229553333333     0          
H3       H      0.310166666667     0.272933333333     0.214133333333     0          
C6       C      0.248966666667     0.167033333333     0.231093333333     0          
H4       H      0.227366666667     0.137133333333     0.216633333333     0          
C7       C      0.231266666667     0.129033333333     0.253963333333     0          
H5       H      0.196466666667     0.074133333333     0.255033333333     0          
Zr2      Zr     0.462606666667     0.202243333333     0.485693333333     0          
O3       O      0.487566666667     0.221633333333     0.526903333333     0          
O4       O      0.373656666667     0.193833333333     0.512453333333     0          
C8       C      0.418266666667     0.205433333333     0.530733333333     0          
C9       C      0.387466666667     0.193633333333     0.555603333333     0          
C10      C      0.439266666667     0.209333333333     0.575473333333     0          
H6       H      0.493566666667     0.229233333333     0.572533333333     0          
C11      C      0.411466666667     0.196133333333     0.598813333333     0          
H7       H      0.446366666667     0.207833333333     0.612133333333     0          
C12      C      0.336166666667     0.167233333333     0.602683333333     0          
H8       H      0.318066666667     0.158133333333     0.619033333333     0          
C13      C      0.279966666667     0.148533333333     0.583683333333     0          
H9       H      0.225766666667     0.126833333333     0.587233333333     0          
C14      C      0.307866666667     0.163433333333     0.559493333333     0          
H10      H      0.273066666667     0.153033333333     0.546233333333     0          
O5       O      0.301526666667     0.144263333333     0.365083333333     0          
O6       O      0.156726666667     0.050173333333     0.378623333333     0          
O7       O      0.124176666667     0.067633333333     0.416003333333     0          
O8       O      0.371006666667     0.177793333333     0.463733333333     0          
O9       O      0.515096666667     0.217443333333     0.450593333333     0          
O10      O      0.549366666667     0.240533333333     0.411893333333     0          
C15      C      0.317106666667     0.147783333333     0.388893333333     0          
C16      C      0.258946666667     0.121133333333     0.406853333333     0          
C17      C      0.278396666667     0.131933333333     0.431653333333     0          
H11      H      0.237566666667     0.114833333333     0.443433333333     0          
C18      C      0.356036666667     0.167113333333     0.439633333333     0          
C19      C      0.414666666667     0.189153333333     0.421443333333     0          
C20      C      0.394796666667     0.180563333333     0.396393333333     0          
H12      H      0.435166666667     0.197433333333     0.384533333333     0          
C21      C      0.174766666667     0.077333333333     0.400713333333     0          
C22      C      0.497466666667     0.217633333333     0.427673333333     0          
O11      O      0.236906666667     0.992883333333     0.341063333333     0          
O12      O      0.341096666667     0.816213333333     0.326523333333     0          
O13      O      0.242646666667     0.695123333333     0.327483333333     0          
C23      C      0.201456666667     0.915753333333     0.336933333333     0          
C24      C      0.247516666667     0.880373333333     0.334203333333     0          
H13      H      0.303066666667     0.912433333333     0.334733333333     0          
C25      C      0.214936666667     0.799843333333     0.330793333333     0          
C26      C      0.268666666667     0.767943333333     0.328233333333     0          
O14      O      0.431776666667     0.089793333333     0.490463333333     0          
O15      O      0.674216666667     0.188013333333     0.487003333333     0          
O16      O      0.578796666667     0.213783333333     0.491113333333     0          
C27      C      0.466276666667     0.047683333333     0.495433333333     0          
C28      C      0.419246666667     0.967783333333     0.500593333333     0          
H14      H      0.363866666667     0.945533333333     0.501233333333     0          
C29      C      0.548466666667     0.080183333333     0.495233333333     0          
C30      C      0.603006666667     0.165753333333     0.490603333333     0          
Zr1      Zr     0.923746666667     0.131153333333     0.343793333333     0          
O1       O      0.935206666667     0.123753333333     0.302083333333     0          
O2       O      0.833256666667     0.125173333333     0.317453333333     0          
C1       C      0.867466666667     0.115733333333     0.298893333333     0          
C2       C      0.827066666667     0.092433333333     0.274823333333     0          
C3       C      0.745766666667     0.060633333333     0.273253333333     0          
H1       H      0.716066666667     0.055333333333     0.287533333333     0          
C4       C      0.708366666667     0.036733333333     0.250743333333     0          
H2       H      0.652766666667     0.011433333333     0.249833333333     0          
C5       C      0.752266666667     0.050033333333     0.229553333333     0          
H3       H      0.727066666667     0.037233333333     0.214133333333     0          
C6       C      0.832966666667     0.081933333333     0.231093333333     0          
H4       H      0.862866666667     0.090233333333     0.216633333333     0          
C7       C      0.870966666667     0.102233333333     0.253963333333     0          
H5       H      0.925866666667     0.122333333333     0.255033333333     0          
Zr2      Zr     0.797756666667     0.260363333333     0.485693333333     0          
O3       O      0.778366666667     0.265933333333     0.526903333333     0          
O4       O      0.806166666667     0.179823333333     0.512453333333     0          
C8       C      0.794566666667     0.212833333333     0.530733333333     0          
C9       C      0.806366666667     0.193833333333     0.555603333333     0          
C10      C      0.790666666667     0.229933333333     0.575473333333     0          
H6       H      0.770766666667     0.264333333333     0.572533333333     0          
C11      C      0.803866666667     0.215333333333     0.598813333333     0          
H7       H      0.792166666667     0.238533333333     0.612133333333     0          
C12      C      0.832766666667     0.168933333333     0.602683333333     0          
H8       H      0.841866666667     0.159933333333     0.619033333333     0          
C13      C      0.851466666667     0.131433333333     0.583683333333     0          
H9       H      0.873166666667     0.098933333333     0.587233333333     0          
C14      C      0.836566666667     0.144433333333     0.559493333333     0          
H10      H      0.846966666667     0.120033333333     0.546233333333     0          
O5       O      0.855736666667     0.157263333333     0.365083333333     0          
O6       O      0.949826666667     0.106553333333     0.378623333333     0          
O7       O      0.932366666667     0.056543333333     0.416003333333     0          
O8       O      0.822206666667     0.193213333333     0.463733333333     0          
O9       O      0.782556666667     0.297653333333     0.450593333333     0          
O10      O      0.759466666667     0.308833333333     0.411893333333     0          
C15      C      0.852216666667     0.169323333333     0.388893333333     0          
C16      C      0.878866666667     0.137813333333     0.406853333333     0          
C17      C      0.868066666667     0.146463333333     0.431653333333     0          
H11      H      0.885166666667     0.122733333333     0.443433333333     0          
C18      C      0.832886666667     0.188923333333     0.439633333333     0          
C19      C      0.810846666667     0.225513333333     0.421443333333     0          
C20      C      0.819436666667     0.214233333333     0.396393333333     0          
H12      H      0.802566666667     0.237733333333     0.384533333333     0          
C21      C      0.922666666667     0.097433333333     0.400713333333     0          
C22      C      0.782366666667     0.279833333333     0.427673333333     0          
O11      O      0.007116666667     0.244023333333     0.341063333333     0          
O12      O      0.183786666667     0.524883333333     0.326523333333     0          
O13      O      0.304876666667     0.547523333333     0.327483333333     0          
C23      C      0.084246666667     0.285703333333     0.336933333333     0          
C24      C      0.119626666667     0.367143333333     0.334203333333     0          
H13      H      0.087566666667     0.390633333333     0.334733333333     0          
C25      C      0.200156666667     0.415093333333     0.330793333333     0          
C26      C      0.232056666667     0.500723333333     0.328233333333     0          
O14      O      0.910206666667     0.341983333333     0.490463333333     0          
O15      O      0.811986666667     0.486203333333     0.487003333333     0          
O16      O      0.786216666667     0.365013333333     0.491113333333     0          
C27      C      0.952316666667     0.418593333333     0.495433333333     0          
C28      C      0.032216666667     0.451463333333     0.500593333333     0          
H14      H      0.054466666667     0.418333333333     0.501233333333     0          
C29      C      0.919816666667     0.468283333333     0.495233333333     0          
C30      C      0.834246666667     0.437253333333     0.490603333333     0          
Zr1      Zr     0.868846666667     0.792593333333     0.343793333333     0          
O1       O      0.876246666667     0.811453333333     0.302083333333     0          
O2       O      0.874826666667     0.708083333333     0.317453333333     0          
C1       C      0.884266666667     0.751733333333     0.298893333333     0          
C2       C      0.907566666667     0.734633333333     0.274823333333     0          
C3       C      0.939366666667     0.685133333333     0.273253333333     0          
H1       H      0.944666666667     0.660733333333     0.287533333333     0          
C4       C      0.963266666667     0.671633333333     0.250743333333     0          
H2       H      0.988566666667     0.641333333333     0.249833333333     0          
C5       C      0.949966666667     0.702233333333     0.229553333333     0          
H3       H      0.962766666667     0.689833333333     0.214133333333     0          
C6       C      0.918066666667     0.751033333333     0.231093333333     0          
H4       H      0.909766666667     0.772633333333     0.216633333333     0          
C7       C      0.897766666667     0.768733333333     0.253963333333     0          
H5       H      0.877666666667     0.803533333333     0.255033333333     0          
Zr2      Zr     0.739636666667     0.537393333333     0.485693333333     0          
O3       O      0.734066666667     0.512433333333     0.526903333333     0          
O4       O      0.820176666667     0.626343333333     0.512453333333     0          
C8       C      0.787166666667     0.581733333333     0.530733333333     0          
C9       C      0.806166666667     0.612533333333     0.555603333333     0          
C10      C      0.770066666667     0.560733333333     0.575473333333     0          
H6       H      0.735666666667     0.506433333333     0.572533333333     0          
C11      C      0.784666666667     0.588533333333     0.598813333333     0          
H7       H      0.761466666667     0.553633333333     0.612133333333     0          
C12      C      0.831066666667     0.663833333333     0.602683333333     0          
H8       H      0.840066666667     0.681933333333     0.619033333333     0          
C13      C      0.868566666667     0.720033333333     0.583683333333     0          
H9       H      0.901066666667     0.774233333333     0.587233333333     0          
C14      C      0.855566666667     0.692133333333     0.559493333333     0          
H10      H      0.879966666667     0.726933333333     0.546233333333     0          
O5       O      0.842736666667     0.698473333333     0.365083333333     0          
O6       O      0.893446666667     0.843273333333     0.378623333333     0          
O7       O      0.943456666667     0.875823333333     0.416003333333     0          
O8       O      0.806786666667     0.628993333333     0.463733333333     0          
O9       O      0.702346666667     0.484903333333     0.450593333333     0          
O10      O      0.691166666667     0.450633333333     0.411893333333     0          
C15      C      0.830676666667     0.682893333333     0.388893333333     0          
C16      C      0.862186666667     0.741053333333     0.406853333333     0          
C17      C      0.853536666667     0.721603333333     0.431653333333     0          
H11      H      0.877266666667     0.762433333333     0.443433333333     0          
C18      C      0.811076666667     0.643963333333     0.439633333333     0          
C19      C      0.774486666667     0.585333333333     0.421443333333     0          
C20      C      0.785766666667     0.605203333333     0.396393333333     0          
H12      H      0.762266666667     0.564833333333     0.384533333333     0          
C21      C      0.902566666667     0.825233333333     0.400713333333     0          
C22      C      0.720166666667     0.502533333333     0.427673333333     0          
O11      O      0.755976666667     0.763093333333     0.341063333333     0          
O12      O      0.475116666667     0.658903333333     0.326523333333     0          
O13      O      0.452476666667     0.757353333333     0.327483333333     0          
C23      C      0.714296666667     0.798543333333     0.336933333333     0          
C24      C      0.632856666667     0.752483333333     0.334203333333     0          
H13      H      0.609366666667     0.696933333333     0.334733333333     0          
C25      C      0.584906666667     0.785063333333     0.330793333333     0          
C26      C      0.499276666667     0.731333333333     0.328233333333     0          
O14      O      0.658016666667     0.568223333333     0.490463333333     0          
O15      O      0.513796666667     0.325783333333     0.487003333333     0          
O16      O      0.634986666667     0.421203333333     0.491113333333     0          
C27      C      0.581406666667     0.533723333333     0.495433333333     0          
C28      C      0.548536666667     0.580753333333     0.500593333333     0          
H14      H      0.581666666667     0.636133333333     0.501233333333     0          
C29      C      0.531716666667     0.451533333333     0.495233333333     0          
C30      C      0.562746666667     0.396993333333     0.490603333333     0          
Zr1      Zr     0.125926666667     0.590413333333     0.322873333333     0          
O1       O      0.144786666667     0.601873333333     0.364583333333     0          
O2       O      0.041416666667     0.499923333333     0.349213333333     0          
C1       C      0.085066666667     0.534133333333     0.367773333333     0          
C2       C      0.067966666667     0.493733333333     0.391843333333     0          
C3       C      0.018466666667     0.412433333333     0.393413333333     0          
H1       H      0.994066666667     0.382733333333     0.379133333333     0          
C4       C      0.004966666667     0.375033333333     0.415923333333     0          
H2       H      0.974666666667     0.319433333333     0.416833333333     0          
C5       C      0.035566666667     0.418933333333     0.437113333333     0          
H3       H      0.023166666667     0.393733333333     0.452533333333     0          
C6       C      0.084366666667     0.499633333333     0.435573333333     0          
H4       H      0.105966666667     0.529533333333     0.450033333333     0          
C7       C      0.102066666667     0.537633333333     0.412703333333     0          
H5       H      0.136866666667     0.592533333333     0.411633333333     0          
Zr2      Zr     0.870726666667     0.464423333333     0.180973333333     0          
O3       O      0.845766666667     0.445033333333     0.139763333333     0          
O4       O      0.959676666667     0.472833333333     0.154213333333     0          
C8       C      0.915066666667     0.461233333333     0.135933333333     0          
C9       C      0.945866666667     0.473033333333     0.111063333333     0          
C10      C      0.894066666667     0.457333333333     0.091193333333     0          
H6       H      0.839766666667     0.437433333333     0.094133333333     0          
C11      C      0.921866666667     0.470533333333     0.067853333333     0          
H7       H      0.886966666667     0.458833333333     0.054533333333     0          
C12      C      0.997166666667     0.499433333333     0.063983333333     0          
H8       H      0.015266666667     0.508533333333     0.047633333333     0          
C13      C      0.053366666667     0.518133333333     0.082983333333     0          
H9       H      0.107566666667     0.539833333333     0.079433333333     0          
C14      C      0.025466666667     0.503233333333     0.107173333333     0          
H10      H      0.060266666667     0.513633333333     0.120433333333     0          
O5       O      0.031806666667     0.522403333333     0.301583333333     0          
O6       O      0.176606666667     0.616493333333     0.288043333333     0          
O7       O      0.209156666667     0.599033333333     0.250663333333     0          
O8       O      0.962326666667     0.488873333333     0.202933333333     0          
O9       O      0.818236666667     0.449223333333     0.216073333333     0          
O10      O      0.783966666667     0.426133333333     0.254773333333     0          
C15      C      0.016226666667     0.518883333333     0.277773333333     0          
C16      C      0.074386666667     0.545533333333     0.259813333333     0          
C17      C      0.054936666667     0.534733333333     0.235013333333     0          
H11      H      0.095766666667     0.551833333333     0.223233333333     0          
C18      C      0.977296666667     0.499553333333     0.227033333333     0          
C19      C      0.918666666667     0.477513333333     0.245223333333     0          
C20      C      0.938536666667     0.486103333333     0.270273333333     0          
H12      H      0.898166666667     0.469233333333     0.282133333333     0          
C21      C      0.158566666667     0.589333333333     0.265953333333     0          
C22      C      0.835866666667     0.449033333333     0.238993333333     0          
O11      O      0.096426666667     0.673783333333     0.325603333333     0          
O12      O      0.992236666667     0.850453333333     0.340143333333     0          
O13      O      0.090686666667     0.971543333333     0.339183333333     0          
C23      C      0.131876666667     0.750913333333     0.329733333333     0          
C24      C      0.085816666667     0.786293333333     0.332463333333     0          
H13      H      0.030266666667     0.754233333333     0.331933333333     0          
C25      C      0.118396666667     0.866823333333     0.335873333333     0          
C26      C      0.064666666667     0.898723333333     0.338433333333     0          
O14      O      0.901556666667     0.576873333333     0.176203333333     0          
O15      O      0.659116666667     0.478653333333     0.179663333333     0          
O16      O      0.754536666667     0.452883333333     0.175553333333     0          
C27      C      0.867056666667     0.618983333333     0.171233333333     0          
C28      C      0.914086666667     0.698883333333     0.166073333333     0          
H14      H      0.969466666667     0.721133333333     0.165433333333     0          
C29      C      0.784866666667     0.586483333333     0.171433333333     0          
C30      C      0.730326666667     0.500913333333     0.176063333333     0          
Zr1      Zr     0.409586666667     0.535513333333     0.322873333333     0          
O1       O      0.398126666667     0.542913333333     0.364583333333     0          
O2       O      0.500076666667     0.541493333333     0.349213333333     0          
C1       C      0.465866666667     0.550933333333     0.367773333333     0          
C2       C      0.506266666667     0.574233333333     0.391843333333     0          
C3       C      0.587566666667     0.606033333333     0.393413333333     0          
H1       H      0.617266666667     0.611333333333     0.379133333333     0          
C4       C      0.624966666667     0.629933333333     0.415923333333     0          
H2       H      0.680566666667     0.655233333333     0.416833333333     0          
C5       C      0.581066666667     0.616633333333     0.437113333333     0          
H3       H      0.606266666667     0.629433333333     0.452533333333     0          
C6       C      0.500366666667     0.584733333333     0.435573333333     0          
H4       H      0.470466666667     0.576433333333     0.450033333333     0          
C7       C      0.462366666667     0.564433333333     0.412703333333     0          
H5       H      0.407466666667     0.544333333333     0.411633333333     0          
Zr2      Zr     0.535576666667     0.406303333333     0.180973333333     0          
O3       O      0.554966666667     0.400733333333     0.139763333333     0          
O4       O      0.527166666667     0.486843333333     0.154213333333     0          
C8       C      0.538766666667     0.453833333333     0.135933333333     0          
C9       C      0.526966666667     0.472833333333     0.111063333333     0          
C10      C      0.542666666667     0.436733333333     0.091193333333     0          
H6       H      0.562566666667     0.402333333333     0.094133333333     0          
C11      C      0.529466666667     0.451333333333     0.067853333333     0          
H7       H      0.541166666667     0.428133333333     0.054533333333     0          
C12      C      0.500566666667     0.497733333333     0.063983333333     0          
H8       H      0.491466666667     0.506733333333     0.047633333333     0          
C13      C      0.481866666667     0.535233333333     0.082983333333     0          
H9       H      0.460166666667     0.567733333333     0.079433333333     0          
C14      C      0.496766666667     0.522233333333     0.107173333333     0          
H10      H      0.486366666667     0.546633333333     0.120433333333     0          
O5       O      0.477596666667     0.509403333333     0.301583333333     0          
O6       O      0.383506666667     0.560113333333     0.288043333333     0          
O7       O      0.400966666667     0.610123333333     0.250663333333     0          
O8       O      0.511126666667     0.473453333333     0.202933333333     0          
O9       O      0.550776666667     0.369013333333     0.216073333333     0          
O10      O      0.573866666667     0.357833333333     0.254773333333     0          
C15      C      0.481116666667     0.497343333333     0.277773333333     0          
C16      C      0.454466666667     0.528853333333     0.259813333333     0          
C17      C      0.465266666667     0.520203333333     0.235013333333     0          
H11      H      0.448166666667     0.543933333333     0.223233333333     0          
C18      C      0.500446666667     0.477743333333     0.227033333333     0          
C19      C      0.522486666667     0.441153333333     0.245223333333     0          
C20      C      0.513896666667     0.452433333333     0.270273333333     0          
H12      H      0.530766666667     0.428933333333     0.282133333333     0          
C21      C      0.410666666667     0.569233333333     0.265953333333     0          
C22      C      0.550966666667     0.386833333333     0.238993333333     0          
O11      O      0.326216666667     0.422643333333     0.325603333333     0          
O12      O      0.149546666667     0.141783333333     0.340143333333     0          
O13      O      0.028456666667     0.119143333333     0.339183333333     0          
C23      C      0.249086666667     0.380963333333     0.329733333333     0          
C24      C      0.213706666667     0.299523333333     0.332463333333     0          
H13      H      0.245766666667     0.276033333333     0.331933333333     0          
C25      C      0.133176666667     0.251573333333     0.335873333333     0          
C26      C      0.101276666667     0.165943333333     0.338433333333     0          
O14      O      0.423126666667     0.324683333333     0.176203333333     0          
O15      O      0.521346666667     0.180463333333     0.179663333333     0          
O16      O      0.547116666667     0.301653333333     0.175553333333     0          
C27      C      0.381016666667     0.248073333333     0.171233333333     0          
C28      C      0.301116666667     0.215203333333     0.166073333333     0          
H14      H      0.278866666667     0.248333333333     0.165433333333     0          
C29      C      0.413516666667     0.198383333333     0.171433333333     0          
C30      C      0.499086666667     0.229413333333     0.176063333333     0          
Zr1      Zr     0.464486666667     0.874073333333     0.322873333333     0          
O1       O      0.457086666667     0.855213333333     0.364583333333     0          
O2       O      0.458506666667     0.958583333333     0.349213333333     0          
C1       C      0.449066666667     0.914933333333     0.367773333333     0          
C2       C      0.425766666667     0.932033333333     0.391843333333     0          
C3       C      0.393966666667     0.981533333333     0.393413333333     0          
H1       H      0.388666666667     0.005933333333     0.379133333333     0          
C4       C      0.370066666667     0.995033333333     0.415923333333     0          
H2       H      0.344766666667     0.025333333333     0.416833333333     0          
C5       C      0.383366666667     0.964433333333     0.437113333333     0          
H3       H      0.370566666667     0.976833333333     0.452533333333     0          
C6       C      0.415266666667     0.915633333333     0.435573333333     0          
H4       H      0.423566666667     0.894033333333     0.450033333333     0          
C7       C      0.435566666667     0.897933333333     0.412703333333     0          
H5       H      0.455666666667     0.863133333333     0.411633333333     0          
Zr2      Zr     0.593696666667     0.129273333333     0.180973333333     0          
O3       O      0.599266666667     0.154233333333     0.139763333333     0          
O4       O      0.513156666667     0.040323333333     0.154213333333     0          
C8       C      0.546166666667     0.084933333333     0.135933333333     0          
C9       C      0.527166666667     0.054133333333     0.111063333333     0          
C10      C      0.563266666667     0.105933333333     0.091193333333     0          
H6       H      0.597666666667     0.160233333333     0.094133333333     0          
C11      C      0.548666666667     0.078133333333     0.067853333333     0          
H7       H      0.571866666667     0.113033333333     0.054533333333     0          
C12      C      0.502266666667     0.002833333333     0.063983333333     0          
H8       H      0.493266666667     0.984733333333     0.047633333333     0          
C13      C      0.464766666667     0.946633333333     0.082983333333     0          
H9       H      0.432266666667     0.892433333333     0.079433333333     0          
C14      C      0.477766666667     0.974533333333     0.107173333333     0          
H10      H      0.453366666667     0.939733333333     0.120433333333     0          
O5       O      0.490596666667     0.968193333333     0.301583333333     0          
O6       O      0.439886666667     0.823393333333     0.288043333333     0          
O7       O      0.389876666667     0.790843333333     0.250663333333     0          
O8       O      0.526546666667     0.037673333333     0.202933333333     0          
O9       O      0.630986666667     0.181763333333     0.216073333333     0          
O10      O      0.642166666667     0.216033333333     0.254773333333     0          
C15      C      0.502656666667     0.983773333333     0.277773333333     0          
C16      C      0.471146666667     0.925613333333     0.259813333333     0          
C17      C      0.479796666667     0.945063333333     0.235013333333     0          
H11      H      0.456066666667     0.904233333333     0.223233333333     0          
C18      C      0.522256666667     0.022703333333     0.227033333333     0          
C19      C      0.558846666667     0.081333333333     0.245223333333     0          
C20      C      0.547566666667     0.061463333333     0.270273333333     0          
H12      H      0.571066666667     0.101833333333     0.282133333333     0          
C21      C      0.430766666667     0.841433333333     0.265953333333     0          
C22      C      0.613166666667     0.164133333333     0.238993333333     0          
O11      O      0.577356666667     0.903573333333     0.325603333333     0          
O12      O      0.858216666667     0.007763333333     0.340143333333     0          
O13      O      0.880856666667     0.909313333333     0.339183333333     0          
C23      C      0.619036666667     0.868123333333     0.329733333333     0          
C24      C      0.700476666667     0.914183333333     0.332463333333     0          
H13      H      0.723966666667     0.969733333333     0.331933333333     0          
C25      C      0.748426666667     0.881603333333     0.335873333333     0          
C26      C      0.834056666667     0.935333333333     0.338433333333     0          
O14      O      0.675316666667     0.098443333333     0.176203333333     0          
O15      O      0.819536666667     0.340883333333     0.179663333333     0          
O16      O      0.698346666667     0.245463333333     0.175553333333     0          
C27      C      0.751926666667     0.132943333333     0.171233333333     0          
C28      C      0.784796666667     0.085913333333     0.166073333333     0          
H14      H      0.751666666667     0.030533333333     0.165433333333     0          
C29      C      0.801616666667     0.215133333333     0.171433333333     0          
C30      C      0.770586666667     0.269673333333     0.176063333333     0          
Zr1      Zr     0.874073333333     0.409586666667     0.677126666667     0          
O1       O      0.855213333333     0.398126666667     0.635416666667     0          
O2       O      0.958583333333     0.500076666667     0.650786666667     0          
C1       C      0.914933333333     0.465866666667     0.632226666667     0          
C2       C      0.932033333333     0.506266666667     0.608156666667     0          
C3       C      0.981533333333     0.587566666667     0.606586666667     0          
H1       H      0.005933333333     0.617266666667     0.620866666667     0          
C4       C      0.995033333333     0.624966666667     0.584076666667     0          
H2       H      0.025333333333     0.680566666667     0.583166666667     0          
C5       C      0.964433333333     0.581066666667     0.562886666667     0          
H3       H      0.976833333333     0.606266666667     0.547466666667     0          
C6       C      0.915633333333     0.500366666667     0.564426666667     0          
H4       H      0.894033333333     0.470466666667     0.549966666667     0          
C7       C      0.897933333333     0.462366666667     0.587296666667     0          
H5       H      0.863133333333     0.407466666667     0.588366666667     0          
Zr2      Zr     0.129273333333     0.535576666667     0.819026666667     0          
O3       O      0.154233333333     0.554966666667     0.860236666667     0          
O4       O      0.040323333333     0.527166666667     0.845786666667     0          
C8       C      0.084933333333     0.538766666667     0.864066666667     0          
C9       C      0.054133333333     0.526966666667     0.888936666667     0          
C10      C      0.105933333333     0.542666666667     0.908806666667     0          
H6       H      0.160233333333     0.562566666667     0.905866666667     0          
C11      C      0.078133333333     0.529466666667     0.932146666667     0          
H7       H      0.113033333333     0.541166666667     0.945466666667     0          
C12      C      0.002833333333     0.500566666667     0.936016666667     0          
H8       H      0.984733333333     0.491466666667     0.952366666667     0          
C13      C      0.946633333333     0.481866666667     0.917016666667     0          
H9       H      0.892433333333     0.460166666667     0.920566666667     0          
C14      C      0.974533333333     0.496766666667     0.892826666667     0          
H10      H      0.939733333333     0.486366666667     0.879566666667     0          
O5       O      0.968193333333     0.477596666667     0.698416666667     0          
O6       O      0.823393333333     0.383506666667     0.711956666667     0          
O7       O      0.790843333333     0.400966666667     0.749336666667     0          
O8       O      0.037673333333     0.511126666667     0.797066666667     0          
O9       O      0.181763333333     0.550776666667     0.783926666667     0          
O10      O      0.216033333333     0.573866666667     0.745226666667     0          
C15      C      0.983773333333     0.481116666667     0.722226666667     0          
C16      C      0.925613333333     0.454466666667     0.740186666667     0          
C17      C      0.945063333333     0.465266666667     0.764986666667     0          
H11      H      0.904233333333     0.448166666667     0.776766666667     0          
C18      C      0.022703333333     0.500446666667     0.772966666667     0          
C19      C      0.081333333333     0.522486666667     0.754776666667     0          
C20      C      0.061463333333     0.513896666667     0.729726666667     0          
H12      H      0.101833333333     0.530766666667     0.717866666667     0          
C21      C      0.841433333333     0.410666666667     0.734046666667     0          
C22      C      0.164133333333     0.550966666667     0.761006666667     0          
O11      O      0.903573333333     0.326216666667     0.674396666667     0          
O12      O      0.007763333333     0.149546666667     0.659856666667     0          
O13      O      0.909313333333     0.028456666667     0.660816666667     0          
C23      C      0.868123333333     0.249086666667     0.670266666667     0          
C24      C      0.914183333333     0.213706666667     0.667536666667     0          
H13      H      0.969733333333     0.245766666667     0.668066666667     0          
C25      C      0.881603333333     0.133176666667     0.664126666667     0          
C26      C      0.935333333333     0.101276666667     0.661566666667     0          
O14      O      0.098443333333     0.423126666667     0.823796666667     0          
O15      O      0.340883333333     0.521346666667     0.820336666667     0          
O16      O      0.245463333333     0.547116666667     0.824446666667     0          
C27      C      0.132943333333     0.381016666667     0.828766666667     0          
C28      C      0.085913333333     0.301116666667     0.833926666667     0          
H14      H      0.030533333333     0.278866666667     0.834566666667     0          
C29      C      0.215133333333     0.413516666667     0.828566666667     0          
C30      C      0.269673333333     0.499086666667     0.823936666667     0          
Zr1      Zr     0.590413333333     0.464486666667     0.677126666667     0          
O1       O      0.601873333333     0.457086666667     0.635416666667     0          
O2       O      0.499923333333     0.458506666667     0.650786666667     0          
C1       C      0.534133333333     0.449066666667     0.632226666667     0          
C2       C      0.493733333333     0.425766666667     0.608156666667     0          
C3       C      0.412433333333     0.393966666667     0.606586666667     0          
H1       H      0.382733333333     0.388666666667     0.620866666667     0          
C4       C      0.375033333333     0.370066666667     0.584076666667     0          
H2       H      0.319433333333     0.344766666667     0.583166666667     0          
C5       C      0.418933333333     0.383366666667     0.562886666667     0          
H3       H      0.393733333333     0.370566666667     0.547466666667     0          
C6       C      0.499633333333     0.415266666667     0.564426666667     0          
H4       H      0.529533333333     0.423566666667     0.549966666667     0          
C7       C      0.537633333333     0.435566666667     0.587296666667     0          
H5       H      0.592533333333     0.455666666667     0.588366666667     0          
Zr2      Zr     0.464423333333     0.593696666667     0.819026666667     0          
O3       O      0.445033333333     0.599266666667     0.860236666667     0          
O4       O      0.472833333333     0.513156666667     0.845786666667     0          
C8       C      0.461233333333     0.546166666667     0.864066666667     0          
C9       C      0.473033333333     0.527166666667     0.888936666667     0          
C10      C      0.457333333333     0.563266666667     0.908806666667     0          
H6       H      0.437433333333     0.597666666667     0.905866666667     0          
C11      C      0.470533333333     0.548666666667     0.932146666667     0          
H7       H      0.458833333333     0.571866666667     0.945466666667     0          
C12      C      0.499433333333     0.502266666667     0.936016666667     0          
H8       H      0.508533333333     0.493266666667     0.952366666667     0          
C13      C      0.518133333333     0.464766666667     0.917016666667     0          
H9       H      0.539833333333     0.432266666667     0.920566666667     0          
C14      C      0.503233333333     0.477766666667     0.892826666667     0          
H10      H      0.513633333333     0.453366666667     0.879566666667     0          
O5       O      0.522403333333     0.490596666667     0.698416666667     0          
O6       O      0.616493333333     0.439886666667     0.711956666667     0          
O7       O      0.599033333333     0.389876666667     0.749336666667     0          
O8       O      0.488873333333     0.526546666667     0.797066666667     0          
O9       O      0.449223333333     0.630986666667     0.783926666667     0          
O10      O      0.426133333333     0.642166666667     0.745226666667     0          
C15      C      0.518883333333     0.502656666667     0.722226666667     0          
C16      C      0.545533333333     0.471146666667     0.740186666667     0          
C17      C      0.534733333333     0.479796666667     0.764986666667     0          
H11      H      0.551833333333     0.456066666667     0.776766666667     0          
C18      C      0.499553333333     0.522256666667     0.772966666667     0          
C19      C      0.477513333333     0.558846666667     0.754776666667     0          
C20      C      0.486103333333     0.547566666667     0.729726666667     0          
H12      H      0.469233333333     0.571066666667     0.717866666667     0          
C21      C      0.589333333333     0.430766666667     0.734046666667     0          
C22      C      0.449033333333     0.613166666667     0.761006666667     0          
O11      O      0.673783333333     0.577356666667     0.674396666667     0          
O12      O      0.850453333333     0.858216666667     0.659856666667     0          
O13      O      0.971543333333     0.880856666667     0.660816666667     0          
C23      C      0.750913333333     0.619036666667     0.670266666667     0          
C24      C      0.786293333333     0.700476666667     0.667536666667     0          
H13      H      0.754233333333     0.723966666667     0.668066666667     0          
C25      C      0.866823333333     0.748426666667     0.664126666667     0          
C26      C      0.898723333333     0.834056666667     0.661566666667     0          
O14      O      0.576873333333     0.675316666667     0.823796666667     0          
O15      O      0.478653333333     0.819536666667     0.820336666667     0          
O16      O      0.452883333333     0.698346666667     0.824446666667     0          
C27      C      0.618983333333     0.751926666667     0.828766666667     0          
C28      C      0.698883333333     0.784796666667     0.833926666667     0          
H14      H      0.721133333333     0.751666666667     0.834566666667     0          
C29      C      0.586483333333     0.801616666667     0.828566666667     0          
C30      C      0.500913333333     0.770586666667     0.823936666667     0          
Zr1      Zr     0.535513333333     0.125926666667     0.677126666667     0          
O1       O      0.542913333333     0.144786666667     0.635416666667     0          
O2       O      0.541493333333     0.041416666667     0.650786666667     0          
C1       C      0.550933333333     0.085066666667     0.632226666667     0          
C2       C      0.574233333333     0.067966666667     0.608156666667     0          
C3       C      0.606033333333     0.018466666667     0.606586666667     0          
H1       H      0.611333333333     0.994066666667     0.620866666667     0          
C4       C      0.629933333333     0.004966666667     0.584076666667     0          
H2       H      0.655233333333     0.974666666667     0.583166666667     0          
C5       C      0.616633333333     0.035566666667     0.562886666667     0          
H3       H      0.629433333333     0.023166666667     0.547466666667     0          
C6       C      0.584733333333     0.084366666667     0.564426666667     0          
H4       H      0.576433333333     0.105966666667     0.549966666667     0          
C7       C      0.564433333333     0.102066666667     0.587296666667     0          
H5       H      0.544333333333     0.136866666667     0.588366666667     0          
Zr2      Zr     0.406303333333     0.870726666667     0.819026666667     0          
O3       O      0.400733333333     0.845766666667     0.860236666667     0          
O4       O      0.486843333333     0.959676666667     0.845786666667     0          
C8       C      0.453833333333     0.915066666667     0.864066666667     0          
C9       C      0.472833333333     0.945866666667     0.888936666667     0          
C10      C      0.436733333333     0.894066666667     0.908806666667     0          
H6       H      0.402333333333     0.839766666667     0.905866666667     0          
C11      C      0.451333333333     0.921866666667     0.932146666667     0          
H7       H      0.428133333333     0.886966666667     0.945466666667     0          
C12      C      0.497733333333     0.997166666667     0.936016666667     0          
H8       H      0.506733333333     0.015266666667     0.952366666667     0          
C13      C      0.535233333333     0.053366666667     0.917016666667     0          
H9       H      0.567733333333     0.107566666667     0.920566666667     0          
C14      C      0.522233333333     0.025466666667     0.892826666667     0          
H10      H      0.546633333333     0.060266666667     0.879566666667     0          
O5       O      0.509403333333     0.031806666667     0.698416666667     0          
O6       O      0.560113333333     0.176606666667     0.711956666667     0          
O7       O      0.610123333333     0.209156666667     0.749336666667     0          
O8       O      0.473453333333     0.962326666667     0.797066666667     0          
O9       O      0.369013333333     0.818236666667     0.783926666667     0          
O10      O      0.357833333333     0.783966666667     0.745226666667     0          
C15      C      0.497343333333     0.016226666667     0.722226666667     0          
C16      C      0.528853333333     0.074386666667     0.740186666667     0          
C17      C      0.520203333333     0.054936666667     0.764986666667     0          
H11      H      0.543933333333     0.095766666667     0.776766666667     0          
C18      C      0.477743333333     0.977296666667     0.772966666667     0          
C19      C      0.441153333333     0.918666666667     0.754776666667     0          
C20      C      0.452433333333     0.938536666667     0.729726666667     0          
H12      H      0.428933333333     0.898166666667     0.717866666667     0          
C21      C      0.569233333333     0.158566666667     0.734046666667     0          
C22      C      0.386833333333     0.835866666667     0.761006666667     0          
O11      O      0.422643333333     0.096426666667     0.674396666667     0          
O12      O      0.141783333333     0.992236666667     0.659856666667     0          
O13      O      0.119143333333     0.090686666667     0.660816666667     0          
C23      C      0.380963333333     0.131876666667     0.670266666667     0          
C24      C      0.299523333333     0.085816666667     0.667536666667     0          
H13      H      0.276033333333     0.030266666667     0.668066666667     0          
C25      C      0.251573333333     0.118396666667     0.664126666667     0          
C26      C      0.165943333333     0.064666666667     0.661566666667     0          
O14      O      0.324683333333     0.901556666667     0.823796666667     0          
O15      O      0.180463333333     0.659116666667     0.820336666667     0          
O16      O      0.301653333333     0.754536666667     0.824446666667     0          
C27      C      0.248073333333     0.867056666667     0.828766666667     0          
C28      C      0.215203333333     0.914086666667     0.833926666667     0          
H14      H      0.248333333333     0.969466666667     0.834566666667     0          
C29      C      0.198383333333     0.784866666667     0.828566666667     0          
C30      C      0.229413333333     0.730326666667     0.823936666667     0          
Zr1      Zr     0.792593333333     0.923746666667     0.656206666667     0          
O1       O      0.811453333333     0.935206666667     0.697916666667     0          
O2       O      0.708083333333     0.833256666667     0.682546666667     0          
C1       C      0.751733333333     0.867466666667     0.701106666667     0          
C2       C      0.734633333333     0.827066666667     0.725176666667     0          
C3       C      0.685133333333     0.745766666667     0.726746666667     0          
H1       H      0.660733333333     0.716066666667     0.712466666667     0          
C4       C      0.671633333333     0.708366666667     0.749256666667     0          
H2       H      0.641333333333     0.652766666667     0.750166666667     0          
C5       C      0.702233333333     0.752266666667     0.770446666667     0          
H3       H      0.689833333333     0.727066666667     0.785866666667     0          
C6       C      0.751033333333     0.832966666667     0.768906666667     0          
H4       H      0.772633333333     0.862866666667     0.783366666667     0          
C7       C      0.768733333333     0.870966666667     0.746036666667     0          
H5       H      0.803533333333     0.925866666667     0.744966666667     0          
Zr2      Zr     0.537393333333     0.797756666667     0.514306666667     0          
O3       O      0.512433333333     0.778366666667     0.473096666667     0          
O4       O      0.626343333333     0.806166666667     0.487546666667     0          
C8       C      0.581733333333     0.794566666667     0.469266666667     0          
C9       C      0.612533333333     0.806366666667     0.444396666667     0          
C10      C      0.560733333333     0.790666666667     0.424526666667     0          
H6       H      0.506433333333     0.770766666667     0.427466666667     0          
C11      C      0.588533333333     0.803866666667     0.401186666667     0          
H7       H      0.553633333333     0.792166666667     0.387866666667     0          
C12      C      0.663833333333     0.832766666667     0.397316666667     0          
H8       H      0.681933333333     0.841866666667     0.380966666667     0          
C13      C      0.720033333333     0.851466666667     0.416316666667     0          
H9       H      0.774233333333     0.873166666667     0.412766666667     0          
C14      C      0.692133333333     0.836566666667     0.440506666667     0          
H10      H      0.726933333333     0.846966666667     0.453766666667     0          
O5       O      0.698473333333     0.855736666667     0.634916666667     0          
O6       O      0.843273333333     0.949826666667     0.621376666667     0          
O7       O      0.875823333333     0.932366666667     0.583996666667     0          
O8       O      0.628993333333     0.822206666667     0.536266666667     0          
O9       O      0.484903333333     0.782556666667     0.549406666667     0          
O10      O      0.450633333333     0.759466666667     0.588106666667     0          
C15      C      0.682893333333     0.852216666667     0.611106666667     0          
C16      C      0.741053333333     0.878866666667     0.593146666667     0          
C17      C      0.721603333333     0.868066666667     0.568346666667     0          
H11      H      0.762433333333     0.885166666667     0.556566666667     0          
C18      C      0.643963333333     0.832886666667     0.560366666667     0          
C19      C      0.585333333333     0.810846666667     0.578556666667     0          
C20      C      0.605203333333     0.819436666667     0.603606666667     0          
H12      H      0.564833333333     0.802566666667     0.615466666667     0          
C21      C      0.825233333333     0.922666666667     0.599286666667     0          
C22      C      0.502533333333     0.782366666667     0.572326666667     0          
O11      O      0.763093333333     0.007116666667     0.658936666667     0          
O12      O      0.658903333333     0.183786666667     0.673476666667     0          
O13      O      0.757353333333     0.304876666667     0.672516666667     0          
C23      C      0.798543333333     0.084246666667     0.663066666667     0          
C24      C      0.752483333333     0.119626666667     0.665796666667     0          
H13      H      0.696933333333     0.087566666667     0.665266666667     0          
C25      C      0.785063333333     0.200156666667     0.669206666667     0          
C26      C      0.731333333333     0.232056666667     0.671766666667     0          
O14      O      0.568223333333     0.910206666667     0.509536666667     0          
O15      O      0.325783333333     0.811986666667     0.512996666667     0          
O16      O      0.421203333333     0.786216666667     0.508886666667     0          
C27      C      0.533723333333     0.952316666667     0.504566666667     0          
C28      C      0.580753333333     0.032216666667     0.499406666667     0          
H14      H      0.636133333333     0.054466666667     0.498766666667     0          
C29      C      0.451533333333     0.919816666667     0.504766666667     0          
C30      C      0.396993333333     0.834246666667     0.509396666667     0          
Zr1      Zr     0.076253333333     0.868846666667     0.656206666667     0          
O1       O      0.064793333333     0.876246666667     0.697916666667     0          
O2       O      0.166743333333     0.874826666667     0.682546666667     0          
C1       C      0.132533333333     0.884266666667     0.701106666667     0          
C2       C      0.172933333333     0.907566666667     0.725176666667     0          
C3       C      0.254233333333     0.939366666667     0.726746666667     0          
H1       H      0.283933333333     0.944666666667     0.712466666667     0          
C4       C      0.291633333333     0.963266666667     0.749256666667     0          
H2       H      0.347233333333     0.988566666667     0.750166666667     0          
C5       C      0.247733333333     0.949966666667     0.770446666667     0          
H3       H      0.272933333333     0.962766666667     0.785866666667     0          
C6       C      0.167033333333     0.918066666667     0.768906666667     0          
H4       H      0.137133333333     0.909766666667     0.783366666667     0          
C7       C      0.129033333333     0.897766666667     0.746036666667     0          
H5       H      0.074133333333     0.877666666667     0.744966666667     0          
Zr2      Zr     0.202243333333     0.739636666667     0.514306666667     0          
O3       O      0.221633333333     0.734066666667     0.473096666667     0          
O4       O      0.193833333333     0.820176666667     0.487546666667     0          
C8       C      0.205433333333     0.787166666667     0.469266666667     0          
C9       C      0.193633333333     0.806166666667     0.444396666667     0          
C10      C      0.209333333333     0.770066666667     0.424526666667     0          
H6       H      0.229233333333     0.735666666667     0.427466666667     0          
C11      C      0.196133333333     0.784666666667     0.401186666667     0          
H7       H      0.207833333333     0.761466666667     0.387866666667     0          
C12      C      0.167233333333     0.831066666667     0.397316666667     0          
H8       H      0.158133333333     0.840066666667     0.380966666667     0          
C13      C      0.148533333333     0.868566666667     0.416316666667     0          
H9       H      0.126833333333     0.901066666667     0.412766666667     0          
C14      C      0.163433333333     0.855566666667     0.440506666667     0          
H10      H      0.153033333333     0.879966666667     0.453766666667     0          
O5       O      0.144263333333     0.842736666667     0.634916666667     0          
O6       O      0.050173333333     0.893446666667     0.621376666667     0          
O7       O      0.067633333333     0.943456666667     0.583996666667     0          
O8       O      0.177793333333     0.806786666667     0.536266666667     0          
O9       O      0.217443333333     0.702346666667     0.549406666667     0          
O10      O      0.240533333333     0.691166666667     0.588106666667     0          
C15      C      0.147783333333     0.830676666667     0.611106666667     0          
C16      C      0.121133333333     0.862186666667     0.593146666667     0          
C17      C      0.131933333333     0.853536666667     0.568346666667     0          
H11      H      0.114833333333     0.877266666667     0.556566666667     0          
C18      C      0.167113333333     0.811076666667     0.560366666667     0          
C19      C      0.189153333333     0.774486666667     0.578556666667     0          
C20      C      0.180563333333     0.785766666667     0.603606666667     0          
H12      H      0.197433333333     0.762266666667     0.615466666667     0          
C21      C      0.077333333333     0.902566666667     0.599286666667     0          
C22      C      0.217633333333     0.720166666667     0.572326666667     0          
O11      O      0.992883333333     0.755976666667     0.658936666667     0          
O12      O      0.816213333333     0.475116666667     0.673476666667     0          
O13      O      0.695123333333     0.452476666667     0.672516666667     0          
C23      C      0.915753333333     0.714296666667     0.663066666667     0          
C24      C      0.880373333333     0.632856666667     0.665796666667     0          
H13      H      0.912433333333     0.609366666667     0.665266666667     0          
C25      C      0.799843333333     0.584906666667     0.669206666667     0          
C26      C      0.767943333333     0.499276666667     0.671766666667     0          
O14      O      0.089793333333     0.658016666667     0.509536666667     0          
O15      O      0.188013333333     0.513796666667     0.512996666667     0          
O16      O      0.213783333333     0.634986666667     0.508886666667     0          
C27      C      0.047683333333     0.581406666667     0.504566666667     0          
C28      C      0.967783333333     0.548536666667     0.499406666667     0          
H14      H      0.945533333333     0.581666666667     0.498766666667     0          
C29      C      0.080183333333     0.531716666667     0.504766666667     0          
C30      C      0.165753333333     0.562746666667     0.509396666667     0          
Zr1      Zr     0.131153333333     0.207406666667     0.656206666667     0          
O1       O      0.123753333333     0.188546666667     0.697916666667     0          
O2       O      0.125173333333     0.291916666667     0.682546666667     0          
C1       C      0.115733333333     0.248266666667     0.701106666667     0          
C2       C      0.092433333333     0.265366666667     0.725176666667     0          
C3       C      0.060633333333     0.314866666667     0.726746666667     0          
H1       H      0.055333333333     0.339266666667     0.712466666667     0          
C4       C      0.036733333333     0.328366666667     0.749256666667     0          
H2       H      0.011433333333     0.358666666667     0.750166666667     0          
C5       C      0.050033333333     0.297766666667     0.770446666667     0          
H3       H      0.037233333333     0.310166666667     0.785866666667     0          
C6       C      0.081933333333     0.248966666667     0.768906666667     0          
H4       H      0.090233333333     0.227366666667     0.783366666667     0          
C7       C      0.102233333333     0.231266666667     0.746036666667     0          
H5       H      0.122333333333     0.196466666667     0.744966666667     0          
Zr2      Zr     0.260363333333     0.462606666667     0.514306666667     0          
O3       O      0.265933333333     0.487566666667     0.473096666667     0          
O4       O      0.179823333333     0.373656666667     0.487546666667     0          
C8       C      0.212833333333     0.418266666667     0.469266666667     0          
C9       C      0.193833333333     0.387466666667     0.444396666667     0          
C10      C      0.229933333333     0.439266666667     0.424526666667     0          
H6       H      0.264333333333     0.493566666667     0.427466666667     0          
C11      C      0.215333333333     0.411466666667     0.401186666667     0          
H7       H      0.238533333333     0.446366666667     0.387866666667     0          
C12      C      0.168933333333     0.336166666667     0.397316666667     0          
H8       H      0.159933333333     0.318066666667     0.380966666667     0          
C13      C      0.131433333333     0.279966666667     0.416316666667     0          
H9       H      0.098933333333     0.225766666667     0.412766666667     0          
C14      C      0.144433333333     0.307866666667     0.440506666667     0          
H10      H      0.120033333333     0.273066666667     0.453766666667     0          
O5       O      0.157263333333     0.301526666667     0.634916666667     0          
O6       O      0.106553333333     0.156726666667     0.621376666667     0          
O7       O      0.056543333333     0.124176666667     0.583996666667     0          
O8       O      0.193213333333     0.371006666667     0.536266666667     0          
O9       O      0.297653333333     0.515096666667     0.549406666667     0          
O10      O      0.308833333333     0.549366666667     0.588106666667     0          
C15      C      0.169323333333     0.317106666667     0.611106666667     0          
C16      C      0.137813333333     0.258946666667     0.593146666667     0          
C17      C      0.146463333333     0.278396666667     0.568346666667     0          
H11      H      0.122733333333     0.237566666667     0.556566666667     0          
C18      C      0.188923333333     0.356036666667     0.560366666667     0          
C19      C      0.225513333333     0.414666666667     0.578556666667     0          
C20      C      0.214233333333     0.394796666667     0.603606666667     0          
H12      H      0.237733333333     0.435166666667     0.615466666667     0          
C21      C      0.097433333333     0.174766666667     0.599286666667     0          
C22      C      0.279833333333     0.497466666667     0.572326666667     0          
O11      O      0.244023333333     0.236906666667     0.658936666667     0          
O12      O      0.524883333333     0.341096666667     0.673476666667     0          
O13      O      0.547523333333     0.242646666667     0.672516666667     0          
C23      C      0.285703333333     0.201456666667     0.663066666667     0          
C24      C      0.367143333333     0.247516666667     0.665796666667     0          
H13      H      0.390633333333     0.303066666667     0.665266666667     0          
C25      C      0.415093333333     0.214936666667     0.669206666667     0          
C26      C      0.500723333333     0.268666666667     0.671766666667     0          
O14      O      0.341983333333     0.431776666667     0.509536666667     0          
O15      O      0.486203333333     0.674216666667     0.512996666667     0          
O16      O      0.365013333333     0.578796666667     0.508886666667     0          
C27      C      0.418593333333     0.466276666667     0.504566666667     0          
C28      C      0.451463333333     0.419246666667     0.499406666667     0          
H14      H      0.418333333333     0.363866666667     0.498766666667     0          
C29      C      0.468283333333     0.548466666667     0.504766666667     0          
C30      C      0.437253333333     0.603006666667     0.509396666667     0          


