data_NIHGIX

_audit_creation_method RASPA-1.0
_audit_creation_date 2020-11-2
_audit_author_name 'Rocio Bueno-Perez'

_cell_length_a    17.7043
_cell_length_b    33.0203
_cell_length_c    34.5937
_cell_angle_alpha 90
_cell_angle_beta  90
_cell_angle_gamma 90
_cell_volume      20223.5

_symmetry_cell_setting          orthorhombic
_symmetry_space_group_name_Hall 'P 1'
_symmetry_space_group_name_H-M  'P 1'
_symmetry_Int_Tables_number     1

_symmetry_equiv_pos_as_xyz 'x,y,z'

loop_
_atom_site_label
_atom_site_type_symbol
_atom_site_fract_x
_atom_site_fract_y
_atom_site_fract_z
_atom_site_charge
O2       O      0.574770000000     0.316720000000     0.602600000000     0          
O3       O      0.638370000000     0.355050000000     0.558590000000     0          
O4       O      0.924700000000     0.263710000000     0.896440000000     0          
O5       O      0.601700000000     0.276840000000     0.534890000000     0          
O8       O      0.861700000000     0.299290000000     0.941610000000     0          
C1       C      0.655200000000     0.368000000000     0.625740000000     0          
C2       C      0.620400000000     0.345100000000     0.592670000000     0          
C3       C      0.716600000000     0.407760000000     0.690080000000     0          
C4       C      0.787900000000     0.478280000000     0.769930000000     0          
C6       C      0.858000000000     0.321470000000     0.876640000000     0          
C7       C      0.882100000000     0.292530000000     0.907490000000     0          
C8       C      0.707500000000     0.398340000000     0.621210000000     0          
H2       H      0.723900000000     0.405800000000     0.596100000000     0          
C9       C      0.798700000000     0.409420000000     0.790910000000     0          
C10      C      0.761400000000     0.466290000000     0.734000000000     0          
C11      C      0.769700000000     0.397260000000     0.754980000000     0          
H3       H      0.762000000000     0.369200000000     0.750600000000     0          
C12      C      0.807300000000     0.450150000000     0.798420000000     0          
H4       H      0.826200000000     0.459000000000     0.822700000000     0          
C13      C      0.736100000000     0.418030000000     0.653520000000     0          
H5       H      0.770900000000     0.439600000000     0.649800000000     0          
C14      C      0.751500000000     0.424310000000     0.725230000000     0          
C15      C      0.874700000000     0.314830000000     0.838330000000     0          
H6       H      0.900700000000     0.290900000000     0.830900000000     0          
C16      C      0.817100000000     0.378320000000     0.820460000000     0          
C17      C      0.800000000000     0.384900000000     0.858490000000     0          
H7       H      0.775100000000     0.409300000000     0.865700000000     0          
C18      C      0.853600000000     0.343000000000     0.810330000000     0          
H8       H      0.864500000000     0.337800000000     0.783900000000     0          
C19      C      0.630500000000     0.358130000000     0.662800000000     0          
H9       H      0.592300000000     0.338300000000     0.666400000000     0          
C20      C      0.662200000000     0.377600000000     0.694410000000     0          
H10      H      0.646400000000     0.370200000000     0.719700000000     0          
C22      C      0.818300000000     0.356520000000     0.887140000000     0          
H11      H      0.804100000000     0.361000000000     0.913300000000     0          
Zr1      Zr     0.598980000000     0.330870000000     0.500000000000     0          
Zr3      Zr     0.599930000000     0.223350000000     0.500000000000     0          
O1       O      0.570100000000     0.395120000000     0.500000000000     0          
C23      C      0.568900000000     0.478100000000     0.500000000000     0          
H12      H      0.615000000000     0.463400000000     0.500000000000     0          
Zr2      Zr     0.500000000000     0.276620000000     0.570790000000     0          
O10      O      0.500000000000     0.330060000000     0.534670000000     0          
O11      O      0.500000000000     0.223300000000     0.534200000000     0          
N1       N      0.744100000000     0.500000000000     0.712190000000     0          
H1       H      0.725500000000     0.500000000000     0.688600000000     0          
C5       C      0.500000000000     0.412800000000     0.500000000000     0          
C21      C      0.500000000000     0.458100000000     0.500000000000     0          
O2       O      0.425230000000     0.683280000000     0.602600000000     0          
O3       O      0.361630000000     0.644950000000     0.558590000000     0          
O4       O      0.075300000000     0.736290000000     0.896440000000     0          
O5       O      0.398300000000     0.723160000000     0.534890000000     0          
O8       O      0.138300000000     0.700710000000     0.941610000000     0          
C1       C      0.344800000000     0.632000000000     0.625740000000     0          
C2       C      0.379600000000     0.654900000000     0.592670000000     0          
C3       C      0.283400000000     0.592240000000     0.690080000000     0          
C4       C      0.212100000000     0.521720000000     0.769930000000     0          
C6       C      0.142000000000     0.678530000000     0.876640000000     0          
C7       C      0.117900000000     0.707470000000     0.907490000000     0          
C8       C      0.292500000000     0.601660000000     0.621210000000     0          
H2       H      0.276100000000     0.594200000000     0.596100000000     0          
C9       C      0.201300000000     0.590580000000     0.790910000000     0          
C10      C      0.238600000000     0.533710000000     0.734000000000     0          
C11      C      0.230300000000     0.602740000000     0.754980000000     0          
H3       H      0.238000000000     0.630800000000     0.750600000000     0          
C12      C      0.192700000000     0.549850000000     0.798420000000     0          
H4       H      0.173800000000     0.541000000000     0.822700000000     0          
C13      C      0.263900000000     0.581970000000     0.653520000000     0          
H5       H      0.229100000000     0.560400000000     0.649800000000     0          
C14      C      0.248500000000     0.575690000000     0.725230000000     0          
C15      C      0.125300000000     0.685170000000     0.838330000000     0          
H6       H      0.099300000000     0.709100000000     0.830900000000     0          
C16      C      0.182900000000     0.621680000000     0.820460000000     0          
C17      C      0.200000000000     0.615100000000     0.858490000000     0          
H7       H      0.224900000000     0.590700000000     0.865700000000     0          
C18      C      0.146400000000     0.657000000000     0.810330000000     0          
H8       H      0.135500000000     0.662200000000     0.783900000000     0          
C19      C      0.369500000000     0.641870000000     0.662800000000     0          
H9       H      0.407700000000     0.661700000000     0.666400000000     0          
C20      C      0.337800000000     0.622400000000     0.694410000000     0          
H10      H      0.353600000000     0.629800000000     0.719700000000     0          
C22      C      0.181700000000     0.643480000000     0.887140000000     0          
H11      H      0.195900000000     0.639000000000     0.913300000000     0          
Zr1      Zr     0.401020000000     0.669130000000     0.500000000000     0          
Zr3      Zr     0.400070000000     0.776650000000     0.500000000000     0          
O1       O      0.429900000000     0.604880000000     0.500000000000     0          
C23      C      0.431100000000     0.521900000000     0.500000000000     0          
H12      H      0.385000000000     0.536600000000     0.500000000000     0          
Zr2      Zr     0.500000000000     0.723380000000     0.570790000000     0          
O10      O      0.500000000000     0.669940000000     0.534670000000     0          
O11      O      0.500000000000     0.776700000000     0.534200000000     0          
N1       N      0.255900000000     0.500000000000     0.712190000000     0          
H1       H      0.274500000000     0.500000000000     0.688600000000     0          
C5       C      0.500000000000     0.587200000000     0.500000000000     0          
C21      C      0.500000000000     0.541900000000     0.500000000000     0          
O2       O      0.574770000000     0.683280000000     0.397400000000     0          
O3       O      0.638370000000     0.644950000000     0.441410000000     0          
O4       O      0.924700000000     0.736290000000     0.103560000000     0          
O5       O      0.601700000000     0.723160000000     0.465110000000     0          
O8       O      0.861700000000     0.700710000000     0.058390000000     0          
C1       C      0.655200000000     0.632000000000     0.374260000000     0          
C2       C      0.620400000000     0.654900000000     0.407330000000     0          
C3       C      0.716600000000     0.592240000000     0.309920000000     0          
C4       C      0.787900000000     0.521720000000     0.230070000000     0          
C6       C      0.858000000000     0.678530000000     0.123360000000     0          
C7       C      0.882100000000     0.707470000000     0.092510000000     0          
C8       C      0.707500000000     0.601660000000     0.378790000000     0          
H2       H      0.723900000000     0.594200000000     0.403900000000     0          
C9       C      0.798700000000     0.590580000000     0.209090000000     0          
C10      C      0.761400000000     0.533710000000     0.266000000000     0          
C11      C      0.769700000000     0.602740000000     0.245020000000     0          
H3       H      0.762000000000     0.630800000000     0.249400000000     0          
C12      C      0.807300000000     0.549850000000     0.201580000000     0          
H4       H      0.826200000000     0.541000000000     0.177300000000     0          
C13      C      0.736100000000     0.581970000000     0.346480000000     0          
H5       H      0.770900000000     0.560400000000     0.350200000000     0          
C14      C      0.751500000000     0.575690000000     0.274770000000     0          
C15      C      0.874700000000     0.685170000000     0.161670000000     0          
H6       H      0.900700000000     0.709100000000     0.169100000000     0          
C16      C      0.817100000000     0.621680000000     0.179540000000     0          
C17      C      0.800000000000     0.615100000000     0.141510000000     0          
H7       H      0.775100000000     0.590700000000     0.134300000000     0          
C18      C      0.853600000000     0.657000000000     0.189670000000     0          
H8       H      0.864500000000     0.662200000000     0.216100000000     0          
C19      C      0.630500000000     0.641870000000     0.337200000000     0          
H9       H      0.592300000000     0.661700000000     0.333600000000     0          
C20      C      0.662200000000     0.622400000000     0.305590000000     0          
H10      H      0.646400000000     0.629800000000     0.280300000000     0          
C22      C      0.818300000000     0.643480000000     0.112860000000     0          
H11      H      0.804100000000     0.639000000000     0.086700000000     0          
Zr1      Zr     0.598980000000     0.669130000000     0.500000000000     0          
Zr3      Zr     0.599930000000     0.776650000000     0.500000000000     0          
O1       O      0.570100000000     0.604880000000     0.500000000000     0          
C23      C      0.568900000000     0.521900000000     0.500000000000     0          
H12      H      0.615000000000     0.536600000000     0.500000000000     0          
Zr2      Zr     0.500000000000     0.723380000000     0.429210000000     0          
O10      O      0.500000000000     0.669940000000     0.465330000000     0          
O11      O      0.500000000000     0.776700000000     0.465800000000     0          
N1       N      0.744100000000     0.500000000000     0.287810000000     0          
H1       H      0.725500000000     0.500000000000     0.311400000000     0          
O2       O      0.425230000000     0.316720000000     0.397400000000     0          
O3       O      0.361630000000     0.355050000000     0.441410000000     0          
O4       O      0.075300000000     0.263710000000     0.103560000000     0          
O5       O      0.398300000000     0.276840000000     0.465110000000     0          
O8       O      0.138300000000     0.299290000000     0.058390000000     0          
C1       C      0.344800000000     0.368000000000     0.374260000000     0          
C2       C      0.379600000000     0.345100000000     0.407330000000     0          
C3       C      0.283400000000     0.407760000000     0.309920000000     0          
C4       C      0.212100000000     0.478280000000     0.230070000000     0          
C6       C      0.142000000000     0.321470000000     0.123360000000     0          
C7       C      0.117900000000     0.292530000000     0.092510000000     0          
C8       C      0.292500000000     0.398340000000     0.378790000000     0          
H2       H      0.276100000000     0.405800000000     0.403900000000     0          
C9       C      0.201300000000     0.409420000000     0.209090000000     0          
C10      C      0.238600000000     0.466290000000     0.266000000000     0          
C11      C      0.230300000000     0.397260000000     0.245020000000     0          
H3       H      0.238000000000     0.369200000000     0.249400000000     0          
C12      C      0.192700000000     0.450150000000     0.201580000000     0          
H4       H      0.173800000000     0.459000000000     0.177300000000     0          
C13      C      0.263900000000     0.418030000000     0.346480000000     0          
H5       H      0.229100000000     0.439600000000     0.350200000000     0          
C14      C      0.248500000000     0.424310000000     0.274770000000     0          
C15      C      0.125300000000     0.314830000000     0.161670000000     0          
H6       H      0.099300000000     0.290900000000     0.169100000000     0          
C16      C      0.182900000000     0.378320000000     0.179540000000     0          
C17      C      0.200000000000     0.384900000000     0.141510000000     0          
H7       H      0.224900000000     0.409300000000     0.134300000000     0          
C18      C      0.146400000000     0.343000000000     0.189670000000     0          
H8       H      0.135500000000     0.337800000000     0.216100000000     0          
C19      C      0.369500000000     0.358130000000     0.337200000000     0          
H9       H      0.407700000000     0.338300000000     0.333600000000     0          
C20      C      0.337800000000     0.377600000000     0.305590000000     0          
H10      H      0.353600000000     0.370200000000     0.280300000000     0          
C22      C      0.181700000000     0.356520000000     0.112860000000     0          
H11      H      0.195900000000     0.361000000000     0.086700000000     0          
Zr1      Zr     0.401020000000     0.330870000000     0.500000000000     0          
Zr3      Zr     0.400070000000     0.223350000000     0.500000000000     0          
O1       O      0.429900000000     0.395120000000     0.500000000000     0          
C23      C      0.431100000000     0.478100000000     0.500000000000     0          
H12      H      0.385000000000     0.463400000000     0.500000000000     0          
Zr2      Zr     0.500000000000     0.276620000000     0.429210000000     0          
O10      O      0.500000000000     0.330060000000     0.465330000000     0          
O11      O      0.500000000000     0.223300000000     0.465800000000     0          
N1       N      0.255900000000     0.500000000000     0.287810000000     0          
H1       H      0.274500000000     0.500000000000     0.311400000000     0          
O2       O      0.425230000000     0.683280000000     0.397400000000     0          
O3       O      0.361630000000     0.644950000000     0.441410000000     0          
O4       O      0.075300000000     0.736290000000     0.103560000000     0          
O5       O      0.398300000000     0.723160000000     0.465110000000     0          
O8       O      0.138300000000     0.700710000000     0.058390000000     0          
C1       C      0.344800000000     0.632000000000     0.374260000000     0          
C2       C      0.379600000000     0.654900000000     0.407330000000     0          
C3       C      0.283400000000     0.592240000000     0.309920000000     0          
C4       C      0.212100000000     0.521720000000     0.230070000000     0          
C6       C      0.142000000000     0.678530000000     0.123360000000     0          
C7       C      0.117900000000     0.707470000000     0.092510000000     0          
C8       C      0.292500000000     0.601660000000     0.378790000000     0          
H2       H      0.276100000000     0.594200000000     0.403900000000     0          
C9       C      0.201300000000     0.590580000000     0.209090000000     0          
C10      C      0.238600000000     0.533710000000     0.266000000000     0          
C11      C      0.230300000000     0.602740000000     0.245020000000     0          
H3       H      0.238000000000     0.630800000000     0.249400000000     0          
C12      C      0.192700000000     0.549850000000     0.201580000000     0          
H4       H      0.173800000000     0.541000000000     0.177300000000     0          
C13      C      0.263900000000     0.581970000000     0.346480000000     0          
H5       H      0.229100000000     0.560400000000     0.350200000000     0          
C14      C      0.248500000000     0.575690000000     0.274770000000     0          
C15      C      0.125300000000     0.685170000000     0.161670000000     0          
H6       H      0.099300000000     0.709100000000     0.169100000000     0          
C16      C      0.182900000000     0.621680000000     0.179540000000     0          
C17      C      0.200000000000     0.615100000000     0.141510000000     0          
H7       H      0.224900000000     0.590700000000     0.134300000000     0          
C18      C      0.146400000000     0.657000000000     0.189670000000     0          
H8       H      0.135500000000     0.662200000000     0.216100000000     0          
C19      C      0.369500000000     0.641870000000     0.337200000000     0          
H9       H      0.407700000000     0.661700000000     0.333600000000     0          
C20      C      0.337800000000     0.622400000000     0.305590000000     0          
H10      H      0.353600000000     0.629800000000     0.280300000000     0          
C22      C      0.181700000000     0.643480000000     0.112860000000     0          
H11      H      0.195900000000     0.639000000000     0.086700000000     0          
O2       O      0.574770000000     0.316720000000     0.397400000000     0          
O3       O      0.638370000000     0.355050000000     0.441410000000     0          
O4       O      0.924700000000     0.263710000000     0.103560000000     0          
O5       O      0.601700000000     0.276840000000     0.465110000000     0          
O8       O      0.861700000000     0.299290000000     0.058390000000     0          
C1       C      0.655200000000     0.368000000000     0.374260000000     0          
C2       C      0.620400000000     0.345100000000     0.407330000000     0          
C3       C      0.716600000000     0.407760000000     0.309920000000     0          
C4       C      0.787900000000     0.478280000000     0.230070000000     0          
C6       C      0.858000000000     0.321470000000     0.123360000000     0          
C7       C      0.882100000000     0.292530000000     0.092510000000     0          
C8       C      0.707500000000     0.398340000000     0.378790000000     0          
H2       H      0.723900000000     0.405800000000     0.403900000000     0          
C9       C      0.798700000000     0.409420000000     0.209090000000     0          
C10      C      0.761400000000     0.466290000000     0.266000000000     0          
C11      C      0.769700000000     0.397260000000     0.245020000000     0          
H3       H      0.762000000000     0.369200000000     0.249400000000     0          
C12      C      0.807300000000     0.450150000000     0.201580000000     0          
H4       H      0.826200000000     0.459000000000     0.177300000000     0          
C13      C      0.736100000000     0.418030000000     0.346480000000     0          
H5       H      0.770900000000     0.439600000000     0.350200000000     0          
C14      C      0.751500000000     0.424310000000     0.274770000000     0          
C15      C      0.874700000000     0.314830000000     0.161670000000     0          
H6       H      0.900700000000     0.290900000000     0.169100000000     0          
C16      C      0.817100000000     0.378320000000     0.179540000000     0          
C17      C      0.800000000000     0.384900000000     0.141510000000     0          
H7       H      0.775100000000     0.409300000000     0.134300000000     0          
C18      C      0.853600000000     0.343000000000     0.189670000000     0          
H8       H      0.864500000000     0.337800000000     0.216100000000     0          
C19      C      0.630500000000     0.358130000000     0.337200000000     0          
H9       H      0.592300000000     0.338300000000     0.333600000000     0          
C20      C      0.662200000000     0.377600000000     0.305590000000     0          
H10      H      0.646400000000     0.370200000000     0.280300000000     0          
C22      C      0.818300000000     0.356520000000     0.112860000000     0          
H11      H      0.804100000000     0.361000000000     0.086700000000     0          
O2       O      0.425230000000     0.316720000000     0.602600000000     0          
O3       O      0.361630000000     0.355050000000     0.558590000000     0          
O4       O      0.075300000000     0.263710000000     0.896440000000     0          
O5       O      0.398300000000     0.276840000000     0.534890000000     0          
O8       O      0.138300000000     0.299290000000     0.941610000000     0          
C1       C      0.344800000000     0.368000000000     0.625740000000     0          
C2       C      0.379600000000     0.345100000000     0.592670000000     0          
C3       C      0.283400000000     0.407760000000     0.690080000000     0          
C4       C      0.212100000000     0.478280000000     0.769930000000     0          
C6       C      0.142000000000     0.321470000000     0.876640000000     0          
C7       C      0.117900000000     0.292530000000     0.907490000000     0          
C8       C      0.292500000000     0.398340000000     0.621210000000     0          
H2       H      0.276100000000     0.405800000000     0.596100000000     0          
C9       C      0.201300000000     0.409420000000     0.790910000000     0          
C10      C      0.238600000000     0.466290000000     0.734000000000     0          
C11      C      0.230300000000     0.397260000000     0.754980000000     0          
H3       H      0.238000000000     0.369200000000     0.750600000000     0          
C12      C      0.192700000000     0.450150000000     0.798420000000     0          
H4       H      0.173800000000     0.459000000000     0.822700000000     0          
C13      C      0.263900000000     0.418030000000     0.653520000000     0          
H5       H      0.229100000000     0.439600000000     0.649800000000     0          
C14      C      0.248500000000     0.424310000000     0.725230000000     0          
C15      C      0.125300000000     0.314830000000     0.838330000000     0          
H6       H      0.099300000000     0.290900000000     0.830900000000     0          
C16      C      0.182900000000     0.378320000000     0.820460000000     0          
C17      C      0.200000000000     0.384900000000     0.858490000000     0          
H7       H      0.224900000000     0.409300000000     0.865700000000     0          
C18      C      0.146400000000     0.343000000000     0.810330000000     0          
H8       H      0.135500000000     0.337800000000     0.783900000000     0          
C19      C      0.369500000000     0.358130000000     0.662800000000     0          
H9       H      0.407700000000     0.338300000000     0.666400000000     0          
C20      C      0.337800000000     0.377600000000     0.694410000000     0          
H10      H      0.353600000000     0.370200000000     0.719700000000     0          
C22      C      0.181700000000     0.356520000000     0.887140000000     0          
H11      H      0.195900000000     0.361000000000     0.913300000000     0          
O2       O      0.574770000000     0.683280000000     0.602600000000     0          
O3       O      0.638370000000     0.644950000000     0.558590000000     0          
O4       O      0.924700000000     0.736290000000     0.896440000000     0          
O5       O      0.601700000000     0.723160000000     0.534890000000     0          
O8       O      0.861700000000     0.700710000000     0.941610000000     0          
C1       C      0.655200000000     0.632000000000     0.625740000000     0          
C2       C      0.620400000000     0.654900000000     0.592670000000     0          
C3       C      0.716600000000     0.592240000000     0.690080000000     0          
C4       C      0.787900000000     0.521720000000     0.769930000000     0          
C6       C      0.858000000000     0.678530000000     0.876640000000     0          
C7       C      0.882100000000     0.707470000000     0.907490000000     0          
C8       C      0.707500000000     0.601660000000     0.621210000000     0          
H2       H      0.723900000000     0.594200000000     0.596100000000     0          
C9       C      0.798700000000     0.590580000000     0.790910000000     0          
C10      C      0.761400000000     0.533710000000     0.734000000000     0          
C11      C      0.769700000000     0.602740000000     0.754980000000     0          
H3       H      0.762000000000     0.630800000000     0.750600000000     0          
C12      C      0.807300000000     0.549850000000     0.798420000000     0          
H4       H      0.826200000000     0.541000000000     0.822700000000     0          
C13      C      0.736100000000     0.581970000000     0.653520000000     0          
H5       H      0.770900000000     0.560400000000     0.649800000000     0          
C14      C      0.751500000000     0.575690000000     0.725230000000     0          
C15      C      0.874700000000     0.685170000000     0.838330000000     0          
H6       H      0.900700000000     0.709100000000     0.830900000000     0          
C16      C      0.817100000000     0.621680000000     0.820460000000     0          
C17      C      0.800000000000     0.615100000000     0.858490000000     0          
H7       H      0.775100000000     0.590700000000     0.865700000000     0          
C18      C      0.853600000000     0.657000000000     0.810330000000     0          
H8       H      0.864500000000     0.662200000000     0.783900000000     0          
C19      C      0.630500000000     0.641870000000     0.662800000000     0          
H9       H      0.592300000000     0.661700000000     0.666400000000     0          
C20      C      0.662200000000     0.622400000000     0.694410000000     0          
H10      H      0.646400000000     0.629800000000     0.719700000000     0          
C22      C      0.818300000000     0.643480000000     0.887140000000     0          
H11      H      0.804100000000     0.639000000000     0.913300000000     0          
O2       O      0.074770000000     0.816720000000     0.102600000000     0          
O3       O      0.138370000000     0.855050000000     0.058590000000     0          
O4       O      0.424700000000     0.763710000000     0.396440000000     0          
O5       O      0.101700000000     0.776840000000     0.034890000000     0          
O8       O      0.361700000000     0.799290000000     0.441610000000     0          
C1       C      0.155200000000     0.868000000000     0.125740000000     0          
C2       C      0.120400000000     0.845100000000     0.092670000000     0          
C3       C      0.216600000000     0.907760000000     0.190080000000     0          
C4       C      0.287900000000     0.978280000000     0.269930000000     0          
C6       C      0.358000000000     0.821470000000     0.376640000000     0          
C7       C      0.382100000000     0.792530000000     0.407490000000     0          
C8       C      0.207500000000     0.898340000000     0.121210000000     0          
H2       H      0.223900000000     0.905800000000     0.096100000000     0          
C9       C      0.298700000000     0.909420000000     0.290910000000     0          
C10      C      0.261400000000     0.966290000000     0.234000000000     0          
C11      C      0.269700000000     0.897260000000     0.254980000000     0          
H3       H      0.262000000000     0.869200000000     0.250600000000     0          
C12      C      0.307300000000     0.950150000000     0.298420000000     0          
H4       H      0.326200000000     0.959000000000     0.322700000000     0          
C13      C      0.236100000000     0.918030000000     0.153520000000     0          
H5       H      0.270900000000     0.939600000000     0.149800000000     0          
C14      C      0.251500000000     0.924310000000     0.225230000000     0          
C15      C      0.374700000000     0.814830000000     0.338330000000     0          
H6       H      0.400700000000     0.790900000000     0.330900000000     0          
C16      C      0.317100000000     0.878320000000     0.320460000000     0          
C17      C      0.300000000000     0.884900000000     0.358490000000     0          
H7       H      0.275100000000     0.909300000000     0.365700000000     0          
C18      C      0.353600000000     0.843000000000     0.310330000000     0          
H8       H      0.364500000000     0.837800000000     0.283900000000     0          
C19      C      0.130500000000     0.858130000000     0.162800000000     0          
H9       H      0.092300000000     0.838300000000     0.166400000000     0          
C20      C      0.162200000000     0.877600000000     0.194410000000     0          
H10      H      0.146400000000     0.870200000000     0.219700000000     0          
C22      C      0.318300000000     0.856520000000     0.387140000000     0          
H11      H      0.304100000000     0.861000000000     0.413300000000     0          
Zr1      Zr     0.098980000000     0.830870000000     0.000000000000     0          
Zr3      Zr     0.099930000000     0.723350000000     0.000000000000     0          
O1       O      0.070100000000     0.895120000000     0.000000000000     0          
C23      C      0.068900000000     0.978100000000     0.000000000000     0          
H12      H      0.115000000000     0.963400000000     0.000000000000     0          
Zr2      Zr     0.000000000000     0.776620000000     0.070790000000     0          
O10      O      0.000000000000     0.830060000000     0.034670000000     0          
O11      O      0.000000000000     0.723300000000     0.034200000000     0          
N1       N      0.244100000000     0.000000000000     0.212190000000     0          
H1       H      0.225500000000     0.000000000000     0.188600000000     0          
C5       C      0.000000000000     0.912800000000     0.000000000000     0          
C21      C      0.000000000000     0.958100000000     0.000000000000     0          
O2       O      0.925230000000     0.183280000000     0.102600000000     0          
O3       O      0.861630000000     0.144950000000     0.058590000000     0          
O4       O      0.575300000000     0.236290000000     0.396440000000     0          
O5       O      0.898300000000     0.223160000000     0.034890000000     0          
O8       O      0.638300000000     0.200710000000     0.441610000000     0          
C1       C      0.844800000000     0.132000000000     0.125740000000     0          
C2       C      0.879600000000     0.154900000000     0.092670000000     0          
C3       C      0.783400000000     0.092240000000     0.190080000000     0          
C4       C      0.712100000000     0.021720000000     0.269930000000     0          
C6       C      0.642000000000     0.178530000000     0.376640000000     0          
C7       C      0.617900000000     0.207470000000     0.407490000000     0          
C8       C      0.792500000000     0.101660000000     0.121210000000     0          
H2       H      0.776100000000     0.094200000000     0.096100000000     0          
C9       C      0.701300000000     0.090580000000     0.290910000000     0          
C10      C      0.738600000000     0.033710000000     0.234000000000     0          
C11      C      0.730300000000     0.102740000000     0.254980000000     0          
H3       H      0.738000000000     0.130800000000     0.250600000000     0          
C12      C      0.692700000000     0.049850000000     0.298420000000     0          
H4       H      0.673800000000     0.041000000000     0.322700000000     0          
C13      C      0.763900000000     0.081970000000     0.153520000000     0          
H5       H      0.729100000000     0.060400000000     0.149800000000     0          
C14      C      0.748500000000     0.075690000000     0.225230000000     0          
C15      C      0.625300000000     0.185170000000     0.338330000000     0          
H6       H      0.599300000000     0.209100000000     0.330900000000     0          
C16      C      0.682900000000     0.121680000000     0.320460000000     0          
C17      C      0.700000000000     0.115100000000     0.358490000000     0          
H7       H      0.724900000000     0.090700000000     0.365700000000     0          
C18      C      0.646400000000     0.157000000000     0.310330000000     0          
H8       H      0.635500000000     0.162200000000     0.283900000000     0          
C19      C      0.869500000000     0.141870000000     0.162800000000     0          
H9       H      0.907700000000     0.161700000000     0.166400000000     0          
C20      C      0.837800000000     0.122400000000     0.194410000000     0          
H10      H      0.853600000000     0.129800000000     0.219700000000     0          
C22      C      0.681700000000     0.143480000000     0.387140000000     0          
H11      H      0.695900000000     0.139000000000     0.413300000000     0          
Zr1      Zr     0.901020000000     0.169130000000     0.000000000000     0          
Zr3      Zr     0.900070000000     0.276650000000     0.000000000000     0          
O1       O      0.929900000000     0.104880000000     0.000000000000     0          
C23      C      0.931100000000     0.021900000000     0.000000000000     0          
H12      H      0.885000000000     0.036600000000     0.000000000000     0          
Zr2      Zr     0.000000000000     0.223380000000     0.070790000000     0          
O10      O      0.000000000000     0.169940000000     0.034670000000     0          
O11      O      0.000000000000     0.276700000000     0.034200000000     0          
N1       N      0.755900000000     0.000000000000     0.212190000000     0          
H1       H      0.774500000000     0.000000000000     0.188600000000     0          
C5       C      0.000000000000     0.087200000000     0.000000000000     0          
C21      C      0.000000000000     0.041900000000     0.000000000000     0          
O2       O      0.074770000000     0.183280000000     0.897400000000     0          
O3       O      0.138370000000     0.144950000000     0.941410000000     0          
O4       O      0.424700000000     0.236290000000     0.603560000000     0          
O5       O      0.101700000000     0.223160000000     0.965110000000     0          
O8       O      0.361700000000     0.200710000000     0.558390000000     0          
C1       C      0.155200000000     0.132000000000     0.874260000000     0          
C2       C      0.120400000000     0.154900000000     0.907330000000     0          
C3       C      0.216600000000     0.092240000000     0.809920000000     0          
C4       C      0.287900000000     0.021720000000     0.730070000000     0          
C6       C      0.358000000000     0.178530000000     0.623360000000     0          
C7       C      0.382100000000     0.207470000000     0.592510000000     0          
C8       C      0.207500000000     0.101660000000     0.878790000000     0          
H2       H      0.223900000000     0.094200000000     0.903900000000     0          
C9       C      0.298700000000     0.090580000000     0.709090000000     0          
C10      C      0.261400000000     0.033710000000     0.766000000000     0          
C11      C      0.269700000000     0.102740000000     0.745020000000     0          
H3       H      0.262000000000     0.130800000000     0.749400000000     0          
C12      C      0.307300000000     0.049850000000     0.701580000000     0          
H4       H      0.326200000000     0.041000000000     0.677300000000     0          
C13      C      0.236100000000     0.081970000000     0.846480000000     0          
H5       H      0.270900000000     0.060400000000     0.850200000000     0          
C14      C      0.251500000000     0.075690000000     0.774770000000     0          
C15      C      0.374700000000     0.185170000000     0.661670000000     0          
H6       H      0.400700000000     0.209100000000     0.669100000000     0          
C16      C      0.317100000000     0.121680000000     0.679540000000     0          
C17      C      0.300000000000     0.115100000000     0.641510000000     0          
H7       H      0.275100000000     0.090700000000     0.634300000000     0          
C18      C      0.353600000000     0.157000000000     0.689670000000     0          
H8       H      0.364500000000     0.162200000000     0.716100000000     0          
C19      C      0.130500000000     0.141870000000     0.837200000000     0          
H9       H      0.092300000000     0.161700000000     0.833600000000     0          
C20      C      0.162200000000     0.122400000000     0.805590000000     0          
H10      H      0.146400000000     0.129800000000     0.780300000000     0          
C22      C      0.318300000000     0.143480000000     0.612860000000     0          
H11      H      0.304100000000     0.139000000000     0.586700000000     0          
Zr1      Zr     0.098980000000     0.169130000000     0.000000000000     0          
Zr3      Zr     0.099930000000     0.276650000000     0.000000000000     0          
O1       O      0.070100000000     0.104880000000     0.000000000000     0          
C23      C      0.068900000000     0.021900000000     0.000000000000     0          
H12      H      0.115000000000     0.036600000000     0.000000000000     0          
Zr2      Zr     0.000000000000     0.223380000000     0.929210000000     0          
O10      O      0.000000000000     0.169940000000     0.965330000000     0          
O11      O      0.000000000000     0.276700000000     0.965800000000     0          
N1       N      0.244100000000     0.000000000000     0.787810000000     0          
H1       H      0.225500000000     0.000000000000     0.811400000000     0          
O2       O      0.925230000000     0.816720000000     0.897400000000     0          
O3       O      0.861630000000     0.855050000000     0.941410000000     0          
O4       O      0.575300000000     0.763710000000     0.603560000000     0          
O5       O      0.898300000000     0.776840000000     0.965110000000     0          
O8       O      0.638300000000     0.799290000000     0.558390000000     0          
C1       C      0.844800000000     0.868000000000     0.874260000000     0          
C2       C      0.879600000000     0.845100000000     0.907330000000     0          
C3       C      0.783400000000     0.907760000000     0.809920000000     0          
C4       C      0.712100000000     0.978280000000     0.730070000000     0          
C6       C      0.642000000000     0.821470000000     0.623360000000     0          
C7       C      0.617900000000     0.792530000000     0.592510000000     0          
C8       C      0.792500000000     0.898340000000     0.878790000000     0          
H2       H      0.776100000000     0.905800000000     0.903900000000     0          
C9       C      0.701300000000     0.909420000000     0.709090000000     0          
C10      C      0.738600000000     0.966290000000     0.766000000000     0          
C11      C      0.730300000000     0.897260000000     0.745020000000     0          
H3       H      0.738000000000     0.869200000000     0.749400000000     0          
C12      C      0.692700000000     0.950150000000     0.701580000000     0          
H4       H      0.673800000000     0.959000000000     0.677300000000     0          
C13      C      0.763900000000     0.918030000000     0.846480000000     0          
H5       H      0.729100000000     0.939600000000     0.850200000000     0          
C14      C      0.748500000000     0.924310000000     0.774770000000     0          
C15      C      0.625300000000     0.814830000000     0.661670000000     0          
H6       H      0.599300000000     0.790900000000     0.669100000000     0          
C16      C      0.682900000000     0.878320000000     0.679540000000     0          
C17      C      0.700000000000     0.884900000000     0.641510000000     0          
H7       H      0.724900000000     0.909300000000     0.634300000000     0          
C18      C      0.646400000000     0.843000000000     0.689670000000     0          
H8       H      0.635500000000     0.837800000000     0.716100000000     0          
C19      C      0.869500000000     0.858130000000     0.837200000000     0          
H9       H      0.907700000000     0.838300000000     0.833600000000     0          
C20      C      0.837800000000     0.877600000000     0.805590000000     0          
H10      H      0.853600000000     0.870200000000     0.780300000000     0          
C22      C      0.681700000000     0.856520000000     0.612860000000     0          
H11      H      0.695900000000     0.861000000000     0.586700000000     0          
Zr1      Zr     0.901020000000     0.830870000000     0.000000000000     0          
Zr3      Zr     0.900070000000     0.723350000000     0.000000000000     0          
O1       O      0.929900000000     0.895120000000     0.000000000000     0          
C23      C      0.931100000000     0.978100000000     0.000000000000     0          
H12      H      0.885000000000     0.963400000000     0.000000000000     0          
Zr2      Zr     0.000000000000     0.776620000000     0.929210000000     0          
O10      O      0.000000000000     0.830060000000     0.965330000000     0          
O11      O      0.000000000000     0.723300000000     0.965800000000     0          
N1       N      0.755900000000     0.000000000000     0.787810000000     0          
H1       H      0.774500000000     0.000000000000     0.811400000000     0          
O2       O      0.925230000000     0.183280000000     0.897400000000     0          
O3       O      0.861630000000     0.144950000000     0.941410000000     0          
O4       O      0.575300000000     0.236290000000     0.603560000000     0          
O5       O      0.898300000000     0.223160000000     0.965110000000     0          
O8       O      0.638300000000     0.200710000000     0.558390000000     0          
C1       C      0.844800000000     0.132000000000     0.874260000000     0          
C2       C      0.879600000000     0.154900000000     0.907330000000     0          
C3       C      0.783400000000     0.092240000000     0.809920000000     0          
C4       C      0.712100000000     0.021720000000     0.730070000000     0          
C6       C      0.642000000000     0.178530000000     0.623360000000     0          
C7       C      0.617900000000     0.207470000000     0.592510000000     0          
C8       C      0.792500000000     0.101660000000     0.878790000000     0          
H2       H      0.776100000000     0.094200000000     0.903900000000     0          
C9       C      0.701300000000     0.090580000000     0.709090000000     0          
C10      C      0.738600000000     0.033710000000     0.766000000000     0          
C11      C      0.730300000000     0.102740000000     0.745020000000     0          
H3       H      0.738000000000     0.130800000000     0.749400000000     0          
C12      C      0.692700000000     0.049850000000     0.701580000000     0          
H4       H      0.673800000000     0.041000000000     0.677300000000     0          
C13      C      0.763900000000     0.081970000000     0.846480000000     0          
H5       H      0.729100000000     0.060400000000     0.850200000000     0          
C14      C      0.748500000000     0.075690000000     0.774770000000     0          
C15      C      0.625300000000     0.185170000000     0.661670000000     0          
H6       H      0.599300000000     0.209100000000     0.669100000000     0          
C16      C      0.682900000000     0.121680000000     0.679540000000     0          
C17      C      0.700000000000     0.115100000000     0.641510000000     0          
H7       H      0.724900000000     0.090700000000     0.634300000000     0          
C18      C      0.646400000000     0.157000000000     0.689670000000     0          
H8       H      0.635500000000     0.162200000000     0.716100000000     0          
C19      C      0.869500000000     0.141870000000     0.837200000000     0          
H9       H      0.907700000000     0.161700000000     0.833600000000     0          
C20      C      0.837800000000     0.122400000000     0.805590000000     0          
H10      H      0.853600000000     0.129800000000     0.780300000000     0          
C22      C      0.681700000000     0.143480000000     0.612860000000     0          
H11      H      0.695900000000     0.139000000000     0.586700000000     0          
O2       O      0.074770000000     0.816720000000     0.897400000000     0          
O3       O      0.138370000000     0.855050000000     0.941410000000     0          
O4       O      0.424700000000     0.763710000000     0.603560000000     0          
O5       O      0.101700000000     0.776840000000     0.965110000000     0          
O8       O      0.361700000000     0.799290000000     0.558390000000     0          
C1       C      0.155200000000     0.868000000000     0.874260000000     0          
C2       C      0.120400000000     0.845100000000     0.907330000000     0          
C3       C      0.216600000000     0.907760000000     0.809920000000     0          
C4       C      0.287900000000     0.978280000000     0.730070000000     0          
C6       C      0.358000000000     0.821470000000     0.623360000000     0          
C7       C      0.382100000000     0.792530000000     0.592510000000     0          
C8       C      0.207500000000     0.898340000000     0.878790000000     0          
H2       H      0.223900000000     0.905800000000     0.903900000000     0          
C9       C      0.298700000000     0.909420000000     0.709090000000     0          
C10      C      0.261400000000     0.966290000000     0.766000000000     0          
C11      C      0.269700000000     0.897260000000     0.745020000000     0          
H3       H      0.262000000000     0.869200000000     0.749400000000     0          
C12      C      0.307300000000     0.950150000000     0.701580000000     0          
H4       H      0.326200000000     0.959000000000     0.677300000000     0          
C13      C      0.236100000000     0.918030000000     0.846480000000     0          
H5       H      0.270900000000     0.939600000000     0.850200000000     0          
C14      C      0.251500000000     0.924310000000     0.774770000000     0          
C15      C      0.374700000000     0.814830000000     0.661670000000     0          
H6       H      0.400700000000     0.790900000000     0.669100000000     0          
C16      C      0.317100000000     0.878320000000     0.679540000000     0          
C17      C      0.300000000000     0.884900000000     0.641510000000     0          
H7       H      0.275100000000     0.909300000000     0.634300000000     0          
C18      C      0.353600000000     0.843000000000     0.689670000000     0          
H8       H      0.364500000000     0.837800000000     0.716100000000     0          
C19      C      0.130500000000     0.858130000000     0.837200000000     0          
H9       H      0.092300000000     0.838300000000     0.833600000000     0          
C20      C      0.162200000000     0.877600000000     0.805590000000     0          
H10      H      0.146400000000     0.870200000000     0.780300000000     0          
C22      C      0.318300000000     0.856520000000     0.612860000000     0          
H11      H      0.304100000000     0.861000000000     0.586700000000     0          
O2       O      0.925230000000     0.816720000000     0.102600000000     0          
O3       O      0.861630000000     0.855050000000     0.058590000000     0          
O4       O      0.575300000000     0.763710000000     0.396440000000     0          
O5       O      0.898300000000     0.776840000000     0.034890000000     0          
O8       O      0.638300000000     0.799290000000     0.441610000000     0          
C1       C      0.844800000000     0.868000000000     0.125740000000     0          
C2       C      0.879600000000     0.845100000000     0.092670000000     0          
C3       C      0.783400000000     0.907760000000     0.190080000000     0          
C4       C      0.712100000000     0.978280000000     0.269930000000     0          
C6       C      0.642000000000     0.821470000000     0.376640000000     0          
C7       C      0.617900000000     0.792530000000     0.407490000000     0          
C8       C      0.792500000000     0.898340000000     0.121210000000     0          
H2       H      0.776100000000     0.905800000000     0.096100000000     0          
C9       C      0.701300000000     0.909420000000     0.290910000000     0          
C10      C      0.738600000000     0.966290000000     0.234000000000     0          
C11      C      0.730300000000     0.897260000000     0.254980000000     0          
H3       H      0.738000000000     0.869200000000     0.250600000000     0          
C12      C      0.692700000000     0.950150000000     0.298420000000     0          
H4       H      0.673800000000     0.959000000000     0.322700000000     0          
C13      C      0.763900000000     0.918030000000     0.153520000000     0          
H5       H      0.729100000000     0.939600000000     0.149800000000     0          
C14      C      0.748500000000     0.924310000000     0.225230000000     0          
C15      C      0.625300000000     0.814830000000     0.338330000000     0          
H6       H      0.599300000000     0.790900000000     0.330900000000     0          
C16      C      0.682900000000     0.878320000000     0.320460000000     0          
C17      C      0.700000000000     0.884900000000     0.358490000000     0          
H7       H      0.724900000000     0.909300000000     0.365700000000     0          
C18      C      0.646400000000     0.843000000000     0.310330000000     0          
H8       H      0.635500000000     0.837800000000     0.283900000000     0          
C19      C      0.869500000000     0.858130000000     0.162800000000     0          
H9       H      0.907700000000     0.838300000000     0.166400000000     0          
C20      C      0.837800000000     0.877600000000     0.194410000000     0          
H10      H      0.853600000000     0.870200000000     0.219700000000     0          
C22      C      0.681700000000     0.856520000000     0.387140000000     0          
H11      H      0.695900000000     0.861000000000     0.413300000000     0          
O2       O      0.074770000000     0.183280000000     0.102600000000     0          
O3       O      0.138370000000     0.144950000000     0.058590000000     0          
O4       O      0.424700000000     0.236290000000     0.396440000000     0          
O5       O      0.101700000000     0.223160000000     0.034890000000     0          
O8       O      0.361700000000     0.200710000000     0.441610000000     0          
C1       C      0.155200000000     0.132000000000     0.125740000000     0          
C2       C      0.120400000000     0.154900000000     0.092670000000     0          
C3       C      0.216600000000     0.092240000000     0.190080000000     0          
C4       C      0.287900000000     0.021720000000     0.269930000000     0          
C6       C      0.358000000000     0.178530000000     0.376640000000     0          
C7       C      0.382100000000     0.207470000000     0.407490000000     0          
C8       C      0.207500000000     0.101660000000     0.121210000000     0          
H2       H      0.223900000000     0.094200000000     0.096100000000     0          
C9       C      0.298700000000     0.090580000000     0.290910000000     0          
C10      C      0.261400000000     0.033710000000     0.234000000000     0          
C11      C      0.269700000000     0.102740000000     0.254980000000     0          
H3       H      0.262000000000     0.130800000000     0.250600000000     0          
C12      C      0.307300000000     0.049850000000     0.298420000000     0          
H4       H      0.326200000000     0.041000000000     0.322700000000     0          
C13      C      0.236100000000     0.081970000000     0.153520000000     0          
H5       H      0.270900000000     0.060400000000     0.149800000000     0          
C14      C      0.251500000000     0.075690000000     0.225230000000     0          
C15      C      0.374700000000     0.185170000000     0.338330000000     0          
H6       H      0.400700000000     0.209100000000     0.330900000000     0          
C16      C      0.317100000000     0.121680000000     0.320460000000     0          
C17      C      0.300000000000     0.115100000000     0.358490000000     0          
H7       H      0.275100000000     0.090700000000     0.365700000000     0          
C18      C      0.353600000000     0.157000000000     0.310330000000     0          
H8       H      0.364500000000     0.162200000000     0.283900000000     0          
C19      C      0.130500000000     0.141870000000     0.162800000000     0          
H9       H      0.092300000000     0.161700000000     0.166400000000     0          
C20      C      0.162200000000     0.122400000000     0.194410000000     0          
H10      H      0.146400000000     0.129800000000     0.219700000000     0          
C22      C      0.318300000000     0.143480000000     0.387140000000     0          
H11      H      0.304100000000     0.139000000000     0.413300000000     0          


