data_NIHGOD

_audit_creation_method RASPA-1.0
_audit_creation_date 2020-11-2
_audit_author_name 'Rocio Bueno-Perez'

_cell_length_a    18.9651
_cell_length_b    33.3385
_cell_length_c    33.5366
_cell_angle_alpha 90
_cell_angle_beta  90
_cell_angle_gamma 90
_cell_volume      21204.1

_symmetry_cell_setting          orthorhombic
_symmetry_space_group_name_Hall 'P 1'
_symmetry_space_group_name_H-M  'P 1'
_symmetry_Int_Tables_number     1

_symmetry_equiv_pos_as_xyz 'x,y,z'

loop_
_atom_site_label
_atom_site_type_symbol
_atom_site_fract_x
_atom_site_fract_y
_atom_site_fract_z
_atom_site_charge
O2       O      0.091420000000     0.037100000000     0.217900000000     0          
O3       O      0.134200000000     0.057570000000     0.141030000000     0          
O9       O      0.070510000000     0.106540000000     0.177960000000     0          
C8       C      0.115600000000     0.095160000000     0.150970000000     0          
C9       C      0.152500000000     0.127830000000     0.128580000000     0          
C10      C      0.316300000000     0.300540000000     0.049730000000     0          
H2       H      0.335500000000     0.325500000000     0.041500000000     0          
C11      C      0.256900000000     0.226800000000     0.073770000000     0          
C12      C      0.296600000000     0.272320000000     0.021270000000     0          
C13      C      0.200500000000     0.120180000000     0.100440000000     0          
H3       H      0.213100000000     0.093400000000     0.093800000000     0          
C15      C      0.166700000000     0.197940000000     0.119920000000     0          
H4       H      0.154900000000     0.224600000000     0.127500000000     0          
C17      C      0.233400000000     0.154740000000     0.079900000000     0          
H6       H      0.266300000000     0.150000000000     0.059100000000     0          
C18      C      0.277900000000     0.256210000000     0.101200000000     0          
H7       H      0.271300000000     0.251200000000     0.128800000000     0          
C19      C      0.308200000000     0.292590000000     0.089420000000     0          
C21      C      0.217800000000     0.192360000000     0.090020000000     0          
O10      O      0.428190000000     0.393160000000     0.239850000000     0          
O11      O      0.366780000000     0.443040000000     0.205840000000     0          
C24      C      0.268100000000     0.235120000000     0.033610000000     0          
C25      C      0.328500000000     0.321800000000     0.121370000000     0          
C26      C      0.315500000000     0.362300000000     0.116080000000     0          
H12      H      0.294300000000     0.371600000000     0.092100000000     0          
C28      C      0.378100000000     0.336040000000     0.186190000000     0          
H14      H      0.399500000000     0.326800000000     0.210100000000     0          
C29      C      0.333700000000     0.389750000000     0.146200000000     0          
H15      H      0.324600000000     0.417500000000     0.142500000000     0          
C30      C      0.360200000000     0.309060000000     0.156510000000     0          
H16      H      0.369800000000     0.281300000000     0.160200000000     0          
C33      C      0.364500000000     0.376730000000     0.180900000000     0          
C34      C      0.389200000000     0.406180000000     0.211330000000     0          
C35      C      0.133800000000     0.167400000000     0.138280000000     0          
H18      H      0.098200000000     0.172500000000     0.157600000000     0          
Zr1      Zr     0.092620000000     0.000000000000     0.270020000000     0          
Zr2      Zr     0.092710000000     0.000000000000     0.165850000000     0          
O1       O      0.060870000000     0.000000000000     0.102490000000     0          
O6       O      0.059170000000     0.000000000000     0.333560000000     0          
O7       O      0.204220000000     0.000000000000     0.183740000000     0          
O8       O      0.205290000000     0.000000000000     0.251870000000     0          
C3       C      0.063800000000     0.000000000000     0.020840000000     0          
H1       H      0.107100000000     0.000000000000     0.035100000000     0          
C4       C      0.234800000000     0.000000000000     0.218090000000     0          
C7       C      0.313000000000     0.000000000000     0.218550000000     0          
C14      C      0.460600000000     0.000000000000     0.218100000000     0          
C16      C      0.350200000000     0.000000000000     0.183000000000     0          
H5       H      0.324800000000     0.000000000000     0.158600000000     0          
C20      C      0.422800000000     0.000000000000     0.252400000000     0          
H8       H      0.447300000000     0.000000000000     0.277100000000     0          
C22      C      0.349700000000     0.000000000000     0.252680000000     0          
H9       H      0.325300000000     0.000000000000     0.277400000000     0          
C23      C      0.424100000000     0.000000000000     0.182000000000     0          
H10      H      0.448700000000     0.000000000000     0.157300000000     0          
C27      C      0.061700000000     0.000000000000     0.414980000000     0          
H13      H      0.105400000000     0.000000000000     0.401100000000     0          
C32      C      0.060700000000     0.000000000000     0.456870000000     0          
H17      H      0.104100000000     0.000000000000     0.471000000000     0          
Zr3      Zr     0.000000000000     0.074210000000     0.218440000000     0          
O4       O      0.000000000000     0.036510000000     0.269850000000     0          
O5       O      0.000000000000     0.037140000000     0.166640000000     0          
C1       C      0.000000000000     0.000000000000     0.085890000000     0          
C2       C      0.000000000000     0.000000000000     0.349900000000     0          
C5       C      0.000000000000     0.000000000000     0.041400000000     0          
C6       C      0.000000000000     0.000000000000     0.394300000000     0          
C31      C      0.000000000000     0.000000000000     0.477400000000     0          
N1       N      0.248500000000     0.213080000000     0.000000000000     0          
H11      H      0.227600000000     0.189500000000     0.000000000000     0          
O2       O      0.908580000000     0.962900000000     0.217900000000     0          
O3       O      0.865800000000     0.942430000000     0.141030000000     0          
O9       O      0.929490000000     0.893460000000     0.177960000000     0          
C8       C      0.884400000000     0.904840000000     0.150970000000     0          
C9       C      0.847500000000     0.872170000000     0.128580000000     0          
C10      C      0.683700000000     0.699460000000     0.049730000000     0          
H2       H      0.664500000000     0.674500000000     0.041500000000     0          
C11      C      0.743100000000     0.773200000000     0.073770000000     0          
C12      C      0.703400000000     0.727680000000     0.021270000000     0          
C13      C      0.799500000000     0.879820000000     0.100440000000     0          
H3       H      0.786900000000     0.906600000000     0.093800000000     0          
C15      C      0.833300000000     0.802060000000     0.119920000000     0          
H4       H      0.845100000000     0.775400000000     0.127500000000     0          
C17      C      0.766600000000     0.845260000000     0.079900000000     0          
H6       H      0.733700000000     0.850000000000     0.059100000000     0          
C18      C      0.722100000000     0.743790000000     0.101200000000     0          
H7       H      0.728700000000     0.748800000000     0.128800000000     0          
C19      C      0.691800000000     0.707410000000     0.089420000000     0          
C21      C      0.782200000000     0.807640000000     0.090020000000     0          
O10      O      0.571810000000     0.606840000000     0.239850000000     0          
O11      O      0.633220000000     0.556960000000     0.205840000000     0          
C24      C      0.731900000000     0.764880000000     0.033610000000     0          
C25      C      0.671500000000     0.678200000000     0.121370000000     0          
C26      C      0.684500000000     0.637700000000     0.116080000000     0          
H12      H      0.705700000000     0.628400000000     0.092100000000     0          
C28      C      0.621900000000     0.663960000000     0.186190000000     0          
H14      H      0.600500000000     0.673200000000     0.210100000000     0          
C29      C      0.666300000000     0.610250000000     0.146200000000     0          
H15      H      0.675400000000     0.582500000000     0.142500000000     0          
C30      C      0.639800000000     0.690940000000     0.156510000000     0          
H16      H      0.630200000000     0.718700000000     0.160200000000     0          
C33      C      0.635500000000     0.623270000000     0.180900000000     0          
C34      C      0.610800000000     0.593820000000     0.211330000000     0          
C35      C      0.866200000000     0.832600000000     0.138280000000     0          
H18      H      0.901800000000     0.827500000000     0.157600000000     0          
Zr1      Zr     0.907380000000     0.000000000000     0.270020000000     0          
Zr2      Zr     0.907290000000     0.000000000000     0.165850000000     0          
O1       O      0.939130000000     0.000000000000     0.102490000000     0          
O6       O      0.940830000000     0.000000000000     0.333560000000     0          
O7       O      0.795780000000     0.000000000000     0.183740000000     0          
O8       O      0.794710000000     0.000000000000     0.251870000000     0          
C3       C      0.936200000000     0.000000000000     0.020840000000     0          
H1       H      0.892900000000     0.000000000000     0.035100000000     0          
C4       C      0.765200000000     0.000000000000     0.218090000000     0          
C7       C      0.687000000000     0.000000000000     0.218550000000     0          
C14      C      0.539400000000     0.000000000000     0.218100000000     0          
C16      C      0.649800000000     0.000000000000     0.183000000000     0          
H5       H      0.675200000000     0.000000000000     0.158600000000     0          
C20      C      0.577200000000     0.000000000000     0.252400000000     0          
H8       H      0.552700000000     0.000000000000     0.277100000000     0          
C22      C      0.650300000000     0.000000000000     0.252680000000     0          
H9       H      0.674700000000     0.000000000000     0.277400000000     0          
C23      C      0.575900000000     0.000000000000     0.182000000000     0          
H10      H      0.551300000000     0.000000000000     0.157300000000     0          
C27      C      0.938300000000     0.000000000000     0.414980000000     0          
H13      H      0.894600000000     0.000000000000     0.401100000000     0          
C32      C      0.939300000000     0.000000000000     0.456870000000     0          
H17      H      0.895900000000     0.000000000000     0.471000000000     0          
Zr3      Zr     0.000000000000     0.925790000000     0.218440000000     0          
O4       O      0.000000000000     0.963490000000     0.269850000000     0          
O5       O      0.000000000000     0.962860000000     0.166640000000     0          
N1       N      0.751500000000     0.786920000000     0.000000000000     0          
H11      H      0.772400000000     0.810500000000     0.000000000000     0          
O2       O      0.091420000000     0.962900000000     0.782100000000     0          
O3       O      0.134200000000     0.942430000000     0.858970000000     0          
O9       O      0.070510000000     0.893460000000     0.822040000000     0          
C8       C      0.115600000000     0.904840000000     0.849030000000     0          
C9       C      0.152500000000     0.872170000000     0.871420000000     0          
C10      C      0.316300000000     0.699460000000     0.950270000000     0          
H2       H      0.335500000000     0.674500000000     0.958500000000     0          
C11      C      0.256900000000     0.773200000000     0.926230000000     0          
C12      C      0.296600000000     0.727680000000     0.978730000000     0          
C13      C      0.200500000000     0.879820000000     0.899560000000     0          
H3       H      0.213100000000     0.906600000000     0.906200000000     0          
C15      C      0.166700000000     0.802060000000     0.880080000000     0          
H4       H      0.154900000000     0.775400000000     0.872500000000     0          
C17      C      0.233400000000     0.845260000000     0.920100000000     0          
H6       H      0.266300000000     0.850000000000     0.940900000000     0          
C18      C      0.277900000000     0.743790000000     0.898800000000     0          
H7       H      0.271300000000     0.748800000000     0.871200000000     0          
C19      C      0.308200000000     0.707410000000     0.910580000000     0          
C21      C      0.217800000000     0.807640000000     0.909980000000     0          
O10      O      0.428190000000     0.606840000000     0.760150000000     0          
O11      O      0.366780000000     0.556960000000     0.794160000000     0          
C24      C      0.268100000000     0.764880000000     0.966390000000     0          
C25      C      0.328500000000     0.678200000000     0.878630000000     0          
C26      C      0.315500000000     0.637700000000     0.883920000000     0          
H12      H      0.294300000000     0.628400000000     0.907900000000     0          
C28      C      0.378100000000     0.663960000000     0.813810000000     0          
H14      H      0.399500000000     0.673200000000     0.789900000000     0          
C29      C      0.333700000000     0.610250000000     0.853800000000     0          
H15      H      0.324600000000     0.582500000000     0.857500000000     0          
C30      C      0.360200000000     0.690940000000     0.843490000000     0          
H16      H      0.369800000000     0.718700000000     0.839800000000     0          
C33      C      0.364500000000     0.623270000000     0.819100000000     0          
C34      C      0.389200000000     0.593820000000     0.788670000000     0          
C35      C      0.133800000000     0.832600000000     0.861720000000     0          
H18      H      0.098200000000     0.827500000000     0.842400000000     0          
Zr1      Zr     0.092620000000     0.000000000000     0.729980000000     0          
Zr2      Zr     0.092710000000     0.000000000000     0.834150000000     0          
O1       O      0.060870000000     0.000000000000     0.897510000000     0          
O6       O      0.059170000000     0.000000000000     0.666440000000     0          
O7       O      0.204220000000     0.000000000000     0.816260000000     0          
O8       O      0.205290000000     0.000000000000     0.748130000000     0          
C3       C      0.063800000000     0.000000000000     0.979160000000     0          
H1       H      0.107100000000     0.000000000000     0.964900000000     0          
C4       C      0.234800000000     0.000000000000     0.781910000000     0          
C7       C      0.313000000000     0.000000000000     0.781450000000     0          
C14      C      0.460600000000     0.000000000000     0.781900000000     0          
C16      C      0.350200000000     0.000000000000     0.817000000000     0          
H5       H      0.324800000000     0.000000000000     0.841400000000     0          
C20      C      0.422800000000     0.000000000000     0.747600000000     0          
H8       H      0.447300000000     0.000000000000     0.722900000000     0          
C22      C      0.349700000000     0.000000000000     0.747320000000     0          
H9       H      0.325300000000     0.000000000000     0.722600000000     0          
C23      C      0.424100000000     0.000000000000     0.818000000000     0          
H10      H      0.448700000000     0.000000000000     0.842700000000     0          
C27      C      0.061700000000     0.000000000000     0.585020000000     0          
H13      H      0.105400000000     0.000000000000     0.598900000000     0          
C32      C      0.060700000000     0.000000000000     0.543130000000     0          
H17      H      0.104100000000     0.000000000000     0.529000000000     0          
Zr3      Zr     0.000000000000     0.925790000000     0.781560000000     0          
O4       O      0.000000000000     0.963490000000     0.730150000000     0          
O5       O      0.000000000000     0.962860000000     0.833360000000     0          
C1       C      0.000000000000     0.000000000000     0.914110000000     0          
C2       C      0.000000000000     0.000000000000     0.650100000000     0          
C5       C      0.000000000000     0.000000000000     0.958600000000     0          
C6       C      0.000000000000     0.000000000000     0.605700000000     0          
C31      C      0.000000000000     0.000000000000     0.522600000000     0          
N1       N      0.248500000000     0.786920000000     0.000000000000     0          
H11      H      0.227600000000     0.810500000000     0.000000000000     0          
O2       O      0.908580000000     0.037100000000     0.782100000000     0          
O3       O      0.865800000000     0.057570000000     0.858970000000     0          
O9       O      0.929490000000     0.106540000000     0.822040000000     0          
C8       C      0.884400000000     0.095160000000     0.849030000000     0          
C9       C      0.847500000000     0.127830000000     0.871420000000     0          
C10      C      0.683700000000     0.300540000000     0.950270000000     0          
H2       H      0.664500000000     0.325500000000     0.958500000000     0          
C11      C      0.743100000000     0.226800000000     0.926230000000     0          
C12      C      0.703400000000     0.272320000000     0.978730000000     0          
C13      C      0.799500000000     0.120180000000     0.899560000000     0          
H3       H      0.786900000000     0.093400000000     0.906200000000     0          
C15      C      0.833300000000     0.197940000000     0.880080000000     0          
H4       H      0.845100000000     0.224600000000     0.872500000000     0          
C17      C      0.766600000000     0.154740000000     0.920100000000     0          
H6       H      0.733700000000     0.150000000000     0.940900000000     0          
C18      C      0.722100000000     0.256210000000     0.898800000000     0          
H7       H      0.728700000000     0.251200000000     0.871200000000     0          
C19      C      0.691800000000     0.292590000000     0.910580000000     0          
C21      C      0.782200000000     0.192360000000     0.909980000000     0          
O10      O      0.571810000000     0.393160000000     0.760150000000     0          
O11      O      0.633220000000     0.443040000000     0.794160000000     0          
C24      C      0.731900000000     0.235120000000     0.966390000000     0          
C25      C      0.671500000000     0.321800000000     0.878630000000     0          
C26      C      0.684500000000     0.362300000000     0.883920000000     0          
H12      H      0.705700000000     0.371600000000     0.907900000000     0          
C28      C      0.621900000000     0.336040000000     0.813810000000     0          
H14      H      0.600500000000     0.326800000000     0.789900000000     0          
C29      C      0.666300000000     0.389750000000     0.853800000000     0          
H15      H      0.675400000000     0.417500000000     0.857500000000     0          
C30      C      0.639800000000     0.309060000000     0.843490000000     0          
H16      H      0.630200000000     0.281300000000     0.839800000000     0          
C33      C      0.635500000000     0.376730000000     0.819100000000     0          
C34      C      0.610800000000     0.406180000000     0.788670000000     0          
C35      C      0.866200000000     0.167400000000     0.861720000000     0          
H18      H      0.901800000000     0.172500000000     0.842400000000     0          
Zr1      Zr     0.907380000000     0.000000000000     0.729980000000     0          
Zr2      Zr     0.907290000000     0.000000000000     0.834150000000     0          
O1       O      0.939130000000     0.000000000000     0.897510000000     0          
O6       O      0.940830000000     0.000000000000     0.666440000000     0          
O7       O      0.795780000000     0.000000000000     0.816260000000     0          
O8       O      0.794710000000     0.000000000000     0.748130000000     0          
C3       C      0.936200000000     0.000000000000     0.979160000000     0          
H1       H      0.892900000000     0.000000000000     0.964900000000     0          
C4       C      0.765200000000     0.000000000000     0.781910000000     0          
C7       C      0.687000000000     0.000000000000     0.781450000000     0          
C14      C      0.539400000000     0.000000000000     0.781900000000     0          
C16      C      0.649800000000     0.000000000000     0.817000000000     0          
H5       H      0.675200000000     0.000000000000     0.841400000000     0          
C20      C      0.577200000000     0.000000000000     0.747600000000     0          
H8       H      0.552700000000     0.000000000000     0.722900000000     0          
C22      C      0.650300000000     0.000000000000     0.747320000000     0          
H9       H      0.674700000000     0.000000000000     0.722600000000     0          
C23      C      0.575900000000     0.000000000000     0.818000000000     0          
H10      H      0.551300000000     0.000000000000     0.842700000000     0          
C27      C      0.938300000000     0.000000000000     0.585020000000     0          
H13      H      0.894600000000     0.000000000000     0.598900000000     0          
C32      C      0.939300000000     0.000000000000     0.543130000000     0          
H17      H      0.895900000000     0.000000000000     0.529000000000     0          
Zr3      Zr     0.000000000000     0.074210000000     0.781560000000     0          
O4       O      0.000000000000     0.036510000000     0.730150000000     0          
O5       O      0.000000000000     0.037140000000     0.833360000000     0          
N1       N      0.751500000000     0.213080000000     0.000000000000     0          
H11      H      0.772400000000     0.189500000000     0.000000000000     0          
O2       O      0.908580000000     0.962900000000     0.782100000000     0          
O3       O      0.865800000000     0.942430000000     0.858970000000     0          
O9       O      0.929490000000     0.893460000000     0.822040000000     0          
C8       C      0.884400000000     0.904840000000     0.849030000000     0          
C9       C      0.847500000000     0.872170000000     0.871420000000     0          
C10      C      0.683700000000     0.699460000000     0.950270000000     0          
H2       H      0.664500000000     0.674500000000     0.958500000000     0          
C11      C      0.743100000000     0.773200000000     0.926230000000     0          
C12      C      0.703400000000     0.727680000000     0.978730000000     0          
C13      C      0.799500000000     0.879820000000     0.899560000000     0          
H3       H      0.786900000000     0.906600000000     0.906200000000     0          
C15      C      0.833300000000     0.802060000000     0.880080000000     0          
H4       H      0.845100000000     0.775400000000     0.872500000000     0          
C17      C      0.766600000000     0.845260000000     0.920100000000     0          
H6       H      0.733700000000     0.850000000000     0.940900000000     0          
C18      C      0.722100000000     0.743790000000     0.898800000000     0          
H7       H      0.728700000000     0.748800000000     0.871200000000     0          
C19      C      0.691800000000     0.707410000000     0.910580000000     0          
C21      C      0.782200000000     0.807640000000     0.909980000000     0          
O10      O      0.571810000000     0.606840000000     0.760150000000     0          
O11      O      0.633220000000     0.556960000000     0.794160000000     0          
C24      C      0.731900000000     0.764880000000     0.966390000000     0          
C25      C      0.671500000000     0.678200000000     0.878630000000     0          
C26      C      0.684500000000     0.637700000000     0.883920000000     0          
H12      H      0.705700000000     0.628400000000     0.907900000000     0          
C28      C      0.621900000000     0.663960000000     0.813810000000     0          
H14      H      0.600500000000     0.673200000000     0.789900000000     0          
C29      C      0.666300000000     0.610250000000     0.853800000000     0          
H15      H      0.675400000000     0.582500000000     0.857500000000     0          
C30      C      0.639800000000     0.690940000000     0.843490000000     0          
H16      H      0.630200000000     0.718700000000     0.839800000000     0          
C33      C      0.635500000000     0.623270000000     0.819100000000     0          
C34      C      0.610800000000     0.593820000000     0.788670000000     0          
C35      C      0.866200000000     0.832600000000     0.861720000000     0          
H18      H      0.901800000000     0.827500000000     0.842400000000     0          
O2       O      0.091420000000     0.037100000000     0.782100000000     0          
O3       O      0.134200000000     0.057570000000     0.858970000000     0          
O9       O      0.070510000000     0.106540000000     0.822040000000     0          
C8       C      0.115600000000     0.095160000000     0.849030000000     0          
C9       C      0.152500000000     0.127830000000     0.871420000000     0          
C10      C      0.316300000000     0.300540000000     0.950270000000     0          
H2       H      0.335500000000     0.325500000000     0.958500000000     0          
C11      C      0.256900000000     0.226800000000     0.926230000000     0          
C12      C      0.296600000000     0.272320000000     0.978730000000     0          
C13      C      0.200500000000     0.120180000000     0.899560000000     0          
H3       H      0.213100000000     0.093400000000     0.906200000000     0          
C15      C      0.166700000000     0.197940000000     0.880080000000     0          
H4       H      0.154900000000     0.224600000000     0.872500000000     0          
C17      C      0.233400000000     0.154740000000     0.920100000000     0          
H6       H      0.266300000000     0.150000000000     0.940900000000     0          
C18      C      0.277900000000     0.256210000000     0.898800000000     0          
H7       H      0.271300000000     0.251200000000     0.871200000000     0          
C19      C      0.308200000000     0.292590000000     0.910580000000     0          
C21      C      0.217800000000     0.192360000000     0.909980000000     0          
O10      O      0.428190000000     0.393160000000     0.760150000000     0          
O11      O      0.366780000000     0.443040000000     0.794160000000     0          
C24      C      0.268100000000     0.235120000000     0.966390000000     0          
C25      C      0.328500000000     0.321800000000     0.878630000000     0          
C26      C      0.315500000000     0.362300000000     0.883920000000     0          
H12      H      0.294300000000     0.371600000000     0.907900000000     0          
C28      C      0.378100000000     0.336040000000     0.813810000000     0          
H14      H      0.399500000000     0.326800000000     0.789900000000     0          
C29      C      0.333700000000     0.389750000000     0.853800000000     0          
H15      H      0.324600000000     0.417500000000     0.857500000000     0          
C30      C      0.360200000000     0.309060000000     0.843490000000     0          
H16      H      0.369800000000     0.281300000000     0.839800000000     0          
C33      C      0.364500000000     0.376730000000     0.819100000000     0          
C34      C      0.389200000000     0.406180000000     0.788670000000     0          
C35      C      0.133800000000     0.167400000000     0.861720000000     0          
H18      H      0.098200000000     0.172500000000     0.842400000000     0          
O2       O      0.908580000000     0.037100000000     0.217900000000     0          
O3       O      0.865800000000     0.057570000000     0.141030000000     0          
O9       O      0.929490000000     0.106540000000     0.177960000000     0          
C8       C      0.884400000000     0.095160000000     0.150970000000     0          
C9       C      0.847500000000     0.127830000000     0.128580000000     0          
C10      C      0.683700000000     0.300540000000     0.049730000000     0          
H2       H      0.664500000000     0.325500000000     0.041500000000     0          
C11      C      0.743100000000     0.226800000000     0.073770000000     0          
C12      C      0.703400000000     0.272320000000     0.021270000000     0          
C13      C      0.799500000000     0.120180000000     0.100440000000     0          
H3       H      0.786900000000     0.093400000000     0.093800000000     0          
C15      C      0.833300000000     0.197940000000     0.119920000000     0          
H4       H      0.845100000000     0.224600000000     0.127500000000     0          
C17      C      0.766600000000     0.154740000000     0.079900000000     0          
H6       H      0.733700000000     0.150000000000     0.059100000000     0          
C18      C      0.722100000000     0.256210000000     0.101200000000     0          
H7       H      0.728700000000     0.251200000000     0.128800000000     0          
C19      C      0.691800000000     0.292590000000     0.089420000000     0          
C21      C      0.782200000000     0.192360000000     0.090020000000     0          
O10      O      0.571810000000     0.393160000000     0.239850000000     0          
O11      O      0.633220000000     0.443040000000     0.205840000000     0          
C24      C      0.731900000000     0.235120000000     0.033610000000     0          
C25      C      0.671500000000     0.321800000000     0.121370000000     0          
C26      C      0.684500000000     0.362300000000     0.116080000000     0          
H12      H      0.705700000000     0.371600000000     0.092100000000     0          
C28      C      0.621900000000     0.336040000000     0.186190000000     0          
H14      H      0.600500000000     0.326800000000     0.210100000000     0          
C29      C      0.666300000000     0.389750000000     0.146200000000     0          
H15      H      0.675400000000     0.417500000000     0.142500000000     0          
C30      C      0.639800000000     0.309060000000     0.156510000000     0          
H16      H      0.630200000000     0.281300000000     0.160200000000     0          
C33      C      0.635500000000     0.376730000000     0.180900000000     0          
C34      C      0.610800000000     0.406180000000     0.211330000000     0          
C35      C      0.866200000000     0.167400000000     0.138280000000     0          
H18      H      0.901800000000     0.172500000000     0.157600000000     0          
O2       O      0.091420000000     0.962900000000     0.217900000000     0          
O3       O      0.134200000000     0.942430000000     0.141030000000     0          
O9       O      0.070510000000     0.893460000000     0.177960000000     0          
C8       C      0.115600000000     0.904840000000     0.150970000000     0          
C9       C      0.152500000000     0.872170000000     0.128580000000     0          
C10      C      0.316300000000     0.699460000000     0.049730000000     0          
H2       H      0.335500000000     0.674500000000     0.041500000000     0          
C11      C      0.256900000000     0.773200000000     0.073770000000     0          
C12      C      0.296600000000     0.727680000000     0.021270000000     0          
C13      C      0.200500000000     0.879820000000     0.100440000000     0          
H3       H      0.213100000000     0.906600000000     0.093800000000     0          
C15      C      0.166700000000     0.802060000000     0.119920000000     0          
H4       H      0.154900000000     0.775400000000     0.127500000000     0          
C17      C      0.233400000000     0.845260000000     0.079900000000     0          
H6       H      0.266300000000     0.850000000000     0.059100000000     0          
C18      C      0.277900000000     0.743790000000     0.101200000000     0          
H7       H      0.271300000000     0.748800000000     0.128800000000     0          
C19      C      0.308200000000     0.707410000000     0.089420000000     0          
C21      C      0.217800000000     0.807640000000     0.090020000000     0          
O10      O      0.428190000000     0.606840000000     0.239850000000     0          
O11      O      0.366780000000     0.556960000000     0.205840000000     0          
C24      C      0.268100000000     0.764880000000     0.033610000000     0          
C25      C      0.328500000000     0.678200000000     0.121370000000     0          
C26      C      0.315500000000     0.637700000000     0.116080000000     0          
H12      H      0.294300000000     0.628400000000     0.092100000000     0          
C28      C      0.378100000000     0.663960000000     0.186190000000     0          
H14      H      0.399500000000     0.673200000000     0.210100000000     0          
C29      C      0.333700000000     0.610250000000     0.146200000000     0          
H15      H      0.324600000000     0.582500000000     0.142500000000     0          
C30      C      0.360200000000     0.690940000000     0.156510000000     0          
H16      H      0.369800000000     0.718700000000     0.160200000000     0          
C33      C      0.364500000000     0.623270000000     0.180900000000     0          
C34      C      0.389200000000     0.593820000000     0.211330000000     0          
C35      C      0.133800000000     0.832600000000     0.138280000000     0          
H18      H      0.098200000000     0.827500000000     0.157600000000     0          
O2       O      0.591420000000     0.537100000000     0.717900000000     0          
O3       O      0.634200000000     0.557570000000     0.641030000000     0          
O9       O      0.570510000000     0.606540000000     0.677960000000     0          
C8       C      0.615600000000     0.595160000000     0.650970000000     0          
C9       C      0.652500000000     0.627830000000     0.628580000000     0          
C10      C      0.816300000000     0.800540000000     0.549730000000     0          
H2       H      0.835500000000     0.825500000000     0.541500000000     0          
C11      C      0.756900000000     0.726800000000     0.573770000000     0          
C12      C      0.796600000000     0.772320000000     0.521270000000     0          
C13      C      0.700500000000     0.620180000000     0.600440000000     0          
H3       H      0.713100000000     0.593400000000     0.593800000000     0          
C15      C      0.666700000000     0.697940000000     0.619920000000     0          
H4       H      0.654900000000     0.724600000000     0.627500000000     0          
C17      C      0.733400000000     0.654740000000     0.579900000000     0          
H6       H      0.766300000000     0.650000000000     0.559100000000     0          
C18      C      0.777900000000     0.756210000000     0.601200000000     0          
H7       H      0.771300000000     0.751200000000     0.628800000000     0          
C19      C      0.808200000000     0.792590000000     0.589420000000     0          
C21      C      0.717800000000     0.692360000000     0.590020000000     0          
O10      O      0.928190000000     0.893160000000     0.739850000000     0          
O11      O      0.866780000000     0.943040000000     0.705840000000     0          
C24      C      0.768100000000     0.735120000000     0.533610000000     0          
C25      C      0.828500000000     0.821800000000     0.621370000000     0          
C26      C      0.815500000000     0.862300000000     0.616080000000     0          
H12      H      0.794300000000     0.871600000000     0.592100000000     0          
C28      C      0.878100000000     0.836040000000     0.686190000000     0          
H14      H      0.899500000000     0.826800000000     0.710100000000     0          
C29      C      0.833700000000     0.889750000000     0.646200000000     0          
H15      H      0.824600000000     0.917500000000     0.642500000000     0          
C30      C      0.860200000000     0.809060000000     0.656510000000     0          
H16      H      0.869800000000     0.781300000000     0.660200000000     0          
C33      C      0.864500000000     0.876730000000     0.680900000000     0          
C34      C      0.889200000000     0.906180000000     0.711330000000     0          
C35      C      0.633800000000     0.667400000000     0.638280000000     0          
H18      H      0.598200000000     0.672500000000     0.657600000000     0          
Zr1      Zr     0.592620000000     0.500000000000     0.770020000000     0          
Zr2      Zr     0.592710000000     0.500000000000     0.665850000000     0          
O1       O      0.560870000000     0.500000000000     0.602490000000     0          
O6       O      0.559170000000     0.500000000000     0.833560000000     0          
O7       O      0.704220000000     0.500000000000     0.683740000000     0          
O8       O      0.705290000000     0.500000000000     0.751870000000     0          
C3       C      0.563800000000     0.500000000000     0.520840000000     0          
H1       H      0.607100000000     0.500000000000     0.535100000000     0          
C4       C      0.734800000000     0.500000000000     0.718090000000     0          
C7       C      0.813000000000     0.500000000000     0.718550000000     0          
C14      C      0.960600000000     0.500000000000     0.718100000000     0          
C16      C      0.850200000000     0.500000000000     0.683000000000     0          
H5       H      0.824800000000     0.500000000000     0.658600000000     0          
C20      C      0.922800000000     0.500000000000     0.752400000000     0          
H8       H      0.947300000000     0.500000000000     0.777100000000     0          
C22      C      0.849700000000     0.500000000000     0.752680000000     0          
H9       H      0.825300000000     0.500000000000     0.777400000000     0          
C23      C      0.924100000000     0.500000000000     0.682000000000     0          
H10      H      0.948700000000     0.500000000000     0.657300000000     0          
C27      C      0.561700000000     0.500000000000     0.914980000000     0          
H13      H      0.605400000000     0.500000000000     0.901100000000     0          
C32      C      0.560700000000     0.500000000000     0.956870000000     0          
H17      H      0.604100000000     0.500000000000     0.971000000000     0          
Zr3      Zr     0.500000000000     0.574210000000     0.718440000000     0          
O4       O      0.500000000000     0.536510000000     0.769850000000     0          
O5       O      0.500000000000     0.537140000000     0.666640000000     0          
C1       C      0.500000000000     0.500000000000     0.585890000000     0          
C2       C      0.500000000000     0.500000000000     0.849900000000     0          
C5       C      0.500000000000     0.500000000000     0.541400000000     0          
C6       C      0.500000000000     0.500000000000     0.894300000000     0          
C31      C      0.500000000000     0.500000000000     0.977400000000     0          
N1       N      0.748500000000     0.713080000000     0.500000000000     0          
H11      H      0.727600000000     0.689500000000     0.500000000000     0          
O2       O      0.408580000000     0.462900000000     0.717900000000     0          
O3       O      0.365800000000     0.442430000000     0.641030000000     0          
O9       O      0.429490000000     0.393460000000     0.677960000000     0          
C8       C      0.384400000000     0.404840000000     0.650970000000     0          
C9       C      0.347500000000     0.372170000000     0.628580000000     0          
C10      C      0.183700000000     0.199460000000     0.549730000000     0          
H2       H      0.164500000000     0.174500000000     0.541500000000     0          
C11      C      0.243100000000     0.273200000000     0.573770000000     0          
C12      C      0.203400000000     0.227680000000     0.521270000000     0          
C13      C      0.299500000000     0.379820000000     0.600440000000     0          
H3       H      0.286900000000     0.406600000000     0.593800000000     0          
C15      C      0.333300000000     0.302060000000     0.619920000000     0          
H4       H      0.345100000000     0.275400000000     0.627500000000     0          
C17      C      0.266600000000     0.345260000000     0.579900000000     0          
H6       H      0.233700000000     0.350000000000     0.559100000000     0          
C18      C      0.222100000000     0.243790000000     0.601200000000     0          
H7       H      0.228700000000     0.248800000000     0.628800000000     0          
C19      C      0.191800000000     0.207410000000     0.589420000000     0          
C21      C      0.282200000000     0.307640000000     0.590020000000     0          
O10      O      0.071810000000     0.106840000000     0.739850000000     0          
O11      O      0.133220000000     0.056960000000     0.705840000000     0          
C24      C      0.231900000000     0.264880000000     0.533610000000     0          
C25      C      0.171500000000     0.178200000000     0.621370000000     0          
C26      C      0.184500000000     0.137700000000     0.616080000000     0          
H12      H      0.205700000000     0.128400000000     0.592100000000     0          
C28      C      0.121900000000     0.163960000000     0.686190000000     0          
H14      H      0.100500000000     0.173200000000     0.710100000000     0          
C29      C      0.166300000000     0.110250000000     0.646200000000     0          
H15      H      0.175400000000     0.082500000000     0.642500000000     0          
C30      C      0.139800000000     0.190940000000     0.656510000000     0          
H16      H      0.130200000000     0.218700000000     0.660200000000     0          
C33      C      0.135500000000     0.123270000000     0.680900000000     0          
C34      C      0.110800000000     0.093820000000     0.711330000000     0          
C35      C      0.366200000000     0.332600000000     0.638280000000     0          
H18      H      0.401800000000     0.327500000000     0.657600000000     0          
Zr1      Zr     0.407380000000     0.500000000000     0.770020000000     0          
Zr2      Zr     0.407290000000     0.500000000000     0.665850000000     0          
O1       O      0.439130000000     0.500000000000     0.602490000000     0          
O6       O      0.440830000000     0.500000000000     0.833560000000     0          
O7       O      0.295780000000     0.500000000000     0.683740000000     0          
O8       O      0.294710000000     0.500000000000     0.751870000000     0          
C3       C      0.436200000000     0.500000000000     0.520840000000     0          
H1       H      0.392900000000     0.500000000000     0.535100000000     0          
C4       C      0.265200000000     0.500000000000     0.718090000000     0          
C7       C      0.187000000000     0.500000000000     0.718550000000     0          
C14      C      0.039400000000     0.500000000000     0.718100000000     0          
C16      C      0.149800000000     0.500000000000     0.683000000000     0          
H5       H      0.175200000000     0.500000000000     0.658600000000     0          
C20      C      0.077200000000     0.500000000000     0.752400000000     0          
H8       H      0.052700000000     0.500000000000     0.777100000000     0          
C22      C      0.150300000000     0.500000000000     0.752680000000     0          
H9       H      0.174700000000     0.500000000000     0.777400000000     0          
C23      C      0.075900000000     0.500000000000     0.682000000000     0          
H10      H      0.051300000000     0.500000000000     0.657300000000     0          
C27      C      0.438300000000     0.500000000000     0.914980000000     0          
H13      H      0.394600000000     0.500000000000     0.901100000000     0          
C32      C      0.439300000000     0.500000000000     0.956870000000     0          
H17      H      0.395900000000     0.500000000000     0.971000000000     0          
Zr3      Zr     0.500000000000     0.425790000000     0.718440000000     0          
O4       O      0.500000000000     0.463490000000     0.769850000000     0          
O5       O      0.500000000000     0.462860000000     0.666640000000     0          
N1       N      0.251500000000     0.286920000000     0.500000000000     0          
H11      H      0.272400000000     0.310500000000     0.500000000000     0          
O2       O      0.591420000000     0.462900000000     0.282100000000     0          
O3       O      0.634200000000     0.442430000000     0.358970000000     0          
O9       O      0.570510000000     0.393460000000     0.322040000000     0          
C8       C      0.615600000000     0.404840000000     0.349030000000     0          
C9       C      0.652500000000     0.372170000000     0.371420000000     0          
C10      C      0.816300000000     0.199460000000     0.450270000000     0          
H2       H      0.835500000000     0.174500000000     0.458500000000     0          
C11      C      0.756900000000     0.273200000000     0.426230000000     0          
C12      C      0.796600000000     0.227680000000     0.478730000000     0          
C13      C      0.700500000000     0.379820000000     0.399560000000     0          
H3       H      0.713100000000     0.406600000000     0.406200000000     0          
C15      C      0.666700000000     0.302060000000     0.380080000000     0          
H4       H      0.654900000000     0.275400000000     0.372500000000     0          
C17      C      0.733400000000     0.345260000000     0.420100000000     0          
H6       H      0.766300000000     0.350000000000     0.440900000000     0          
C18      C      0.777900000000     0.243790000000     0.398800000000     0          
H7       H      0.771300000000     0.248800000000     0.371200000000     0          
C19      C      0.808200000000     0.207410000000     0.410580000000     0          
C21      C      0.717800000000     0.307640000000     0.409980000000     0          
O10      O      0.928190000000     0.106840000000     0.260150000000     0          
O11      O      0.866780000000     0.056960000000     0.294160000000     0          
C24      C      0.768100000000     0.264880000000     0.466390000000     0          
C25      C      0.828500000000     0.178200000000     0.378630000000     0          
C26      C      0.815500000000     0.137700000000     0.383920000000     0          
H12      H      0.794300000000     0.128400000000     0.407900000000     0          
C28      C      0.878100000000     0.163960000000     0.313810000000     0          
H14      H      0.899500000000     0.173200000000     0.289900000000     0          
C29      C      0.833700000000     0.110250000000     0.353800000000     0          
H15      H      0.824600000000     0.082500000000     0.357500000000     0          
C30      C      0.860200000000     0.190940000000     0.343490000000     0          
H16      H      0.869800000000     0.218700000000     0.339800000000     0          
C33      C      0.864500000000     0.123270000000     0.319100000000     0          
C34      C      0.889200000000     0.093820000000     0.288670000000     0          
C35      C      0.633800000000     0.332600000000     0.361720000000     0          
H18      H      0.598200000000     0.327500000000     0.342400000000     0          
Zr1      Zr     0.592620000000     0.500000000000     0.229980000000     0          
Zr2      Zr     0.592710000000     0.500000000000     0.334150000000     0          
O1       O      0.560870000000     0.500000000000     0.397510000000     0          
O6       O      0.559170000000     0.500000000000     0.166440000000     0          
O7       O      0.704220000000     0.500000000000     0.316260000000     0          
O8       O      0.705290000000     0.500000000000     0.248130000000     0          
C3       C      0.563800000000     0.500000000000     0.479160000000     0          
H1       H      0.607100000000     0.500000000000     0.464900000000     0          
C4       C      0.734800000000     0.500000000000     0.281910000000     0          
C7       C      0.813000000000     0.500000000000     0.281450000000     0          
C14      C      0.960600000000     0.500000000000     0.281900000000     0          
C16      C      0.850200000000     0.500000000000     0.317000000000     0          
H5       H      0.824800000000     0.500000000000     0.341400000000     0          
C20      C      0.922800000000     0.500000000000     0.247600000000     0          
H8       H      0.947300000000     0.500000000000     0.222900000000     0          
C22      C      0.849700000000     0.500000000000     0.247320000000     0          
H9       H      0.825300000000     0.500000000000     0.222600000000     0          
C23      C      0.924100000000     0.500000000000     0.318000000000     0          
H10      H      0.948700000000     0.500000000000     0.342700000000     0          
C27      C      0.561700000000     0.500000000000     0.085020000000     0          
H13      H      0.605400000000     0.500000000000     0.098900000000     0          
C32      C      0.560700000000     0.500000000000     0.043130000000     0          
H17      H      0.604100000000     0.500000000000     0.029000000000     0          
Zr3      Zr     0.500000000000     0.425790000000     0.281560000000     0          
O4       O      0.500000000000     0.463490000000     0.230150000000     0          
O5       O      0.500000000000     0.462860000000     0.333360000000     0          
C1       C      0.500000000000     0.500000000000     0.414110000000     0          
C2       C      0.500000000000     0.500000000000     0.150100000000     0          
C5       C      0.500000000000     0.500000000000     0.458600000000     0          
C6       C      0.500000000000     0.500000000000     0.105700000000     0          
C31      C      0.500000000000     0.500000000000     0.022600000000     0          
N1       N      0.748500000000     0.286920000000     0.500000000000     0          
H11      H      0.727600000000     0.310500000000     0.500000000000     0          
O2       O      0.408580000000     0.537100000000     0.282100000000     0          
O3       O      0.365800000000     0.557570000000     0.358970000000     0          
O9       O      0.429490000000     0.606540000000     0.322040000000     0          
C8       C      0.384400000000     0.595160000000     0.349030000000     0          
C9       C      0.347500000000     0.627830000000     0.371420000000     0          
C10      C      0.183700000000     0.800540000000     0.450270000000     0          
H2       H      0.164500000000     0.825500000000     0.458500000000     0          
C11      C      0.243100000000     0.726800000000     0.426230000000     0          
C12      C      0.203400000000     0.772320000000     0.478730000000     0          
C13      C      0.299500000000     0.620180000000     0.399560000000     0          
H3       H      0.286900000000     0.593400000000     0.406200000000     0          
C15      C      0.333300000000     0.697940000000     0.380080000000     0          
H4       H      0.345100000000     0.724600000000     0.372500000000     0          
C17      C      0.266600000000     0.654740000000     0.420100000000     0          
H6       H      0.233700000000     0.650000000000     0.440900000000     0          
C18      C      0.222100000000     0.756210000000     0.398800000000     0          
H7       H      0.228700000000     0.751200000000     0.371200000000     0          
C19      C      0.191800000000     0.792590000000     0.410580000000     0          
C21      C      0.282200000000     0.692360000000     0.409980000000     0          
O10      O      0.071810000000     0.893160000000     0.260150000000     0          
O11      O      0.133220000000     0.943040000000     0.294160000000     0          
C24      C      0.231900000000     0.735120000000     0.466390000000     0          
C25      C      0.171500000000     0.821800000000     0.378630000000     0          
C26      C      0.184500000000     0.862300000000     0.383920000000     0          
H12      H      0.205700000000     0.871600000000     0.407900000000     0          
C28      C      0.121900000000     0.836040000000     0.313810000000     0          
H14      H      0.100500000000     0.826800000000     0.289900000000     0          
C29      C      0.166300000000     0.889750000000     0.353800000000     0          
H15      H      0.175400000000     0.917500000000     0.357500000000     0          
C30      C      0.139800000000     0.809060000000     0.343490000000     0          
H16      H      0.130200000000     0.781300000000     0.339800000000     0          
C33      C      0.135500000000     0.876730000000     0.319100000000     0          
C34      C      0.110800000000     0.906180000000     0.288670000000     0          
C35      C      0.366200000000     0.667400000000     0.361720000000     0          
H18      H      0.401800000000     0.672500000000     0.342400000000     0          
Zr1      Zr     0.407380000000     0.500000000000     0.229980000000     0          
Zr2      Zr     0.407290000000     0.500000000000     0.334150000000     0          
O1       O      0.439130000000     0.500000000000     0.397510000000     0          
O6       O      0.440830000000     0.500000000000     0.166440000000     0          
O7       O      0.295780000000     0.500000000000     0.316260000000     0          
O8       O      0.294710000000     0.500000000000     0.248130000000     0          
C3       C      0.436200000000     0.500000000000     0.479160000000     0          
H1       H      0.392900000000     0.500000000000     0.464900000000     0          
C4       C      0.265200000000     0.500000000000     0.281910000000     0          
C7       C      0.187000000000     0.500000000000     0.281450000000     0          
C14      C      0.039400000000     0.500000000000     0.281900000000     0          
C16      C      0.149800000000     0.500000000000     0.317000000000     0          
H5       H      0.175200000000     0.500000000000     0.341400000000     0          
C20      C      0.077200000000     0.500000000000     0.247600000000     0          
H8       H      0.052700000000     0.500000000000     0.222900000000     0          
C22      C      0.150300000000     0.500000000000     0.247320000000     0          
H9       H      0.174700000000     0.500000000000     0.222600000000     0          
C23      C      0.075900000000     0.500000000000     0.318000000000     0          
H10      H      0.051300000000     0.500000000000     0.342700000000     0          
C27      C      0.438300000000     0.500000000000     0.085020000000     0          
H13      H      0.394600000000     0.500000000000     0.098900000000     0          
C32      C      0.439300000000     0.500000000000     0.043130000000     0          
H17      H      0.395900000000     0.500000000000     0.029000000000     0          
Zr3      Zr     0.500000000000     0.574210000000     0.281560000000     0          
O4       O      0.500000000000     0.536510000000     0.230150000000     0          
O5       O      0.500000000000     0.537140000000     0.333360000000     0          
N1       N      0.251500000000     0.713080000000     0.500000000000     0          
H11      H      0.272400000000     0.689500000000     0.500000000000     0          
O2       O      0.408580000000     0.462900000000     0.282100000000     0          
O3       O      0.365800000000     0.442430000000     0.358970000000     0          
O9       O      0.429490000000     0.393460000000     0.322040000000     0          
C8       C      0.384400000000     0.404840000000     0.349030000000     0          
C9       C      0.347500000000     0.372170000000     0.371420000000     0          
C10      C      0.183700000000     0.199460000000     0.450270000000     0          
H2       H      0.164500000000     0.174500000000     0.458500000000     0          
C11      C      0.243100000000     0.273200000000     0.426230000000     0          
C12      C      0.203400000000     0.227680000000     0.478730000000     0          
C13      C      0.299500000000     0.379820000000     0.399560000000     0          
H3       H      0.286900000000     0.406600000000     0.406200000000     0          
C15      C      0.333300000000     0.302060000000     0.380080000000     0          
H4       H      0.345100000000     0.275400000000     0.372500000000     0          
C17      C      0.266600000000     0.345260000000     0.420100000000     0          
H6       H      0.233700000000     0.350000000000     0.440900000000     0          
C18      C      0.222100000000     0.243790000000     0.398800000000     0          
H7       H      0.228700000000     0.248800000000     0.371200000000     0          
C19      C      0.191800000000     0.207410000000     0.410580000000     0          
C21      C      0.282200000000     0.307640000000     0.409980000000     0          
O10      O      0.071810000000     0.106840000000     0.260150000000     0          
O11      O      0.133220000000     0.056960000000     0.294160000000     0          
C24      C      0.231900000000     0.264880000000     0.466390000000     0          
C25      C      0.171500000000     0.178200000000     0.378630000000     0          
C26      C      0.184500000000     0.137700000000     0.383920000000     0          
H12      H      0.205700000000     0.128400000000     0.407900000000     0          
C28      C      0.121900000000     0.163960000000     0.313810000000     0          
H14      H      0.100500000000     0.173200000000     0.289900000000     0          
C29      C      0.166300000000     0.110250000000     0.353800000000     0          
H15      H      0.175400000000     0.082500000000     0.357500000000     0          
C30      C      0.139800000000     0.190940000000     0.343490000000     0          
H16      H      0.130200000000     0.218700000000     0.339800000000     0          
C33      C      0.135500000000     0.123270000000     0.319100000000     0          
C34      C      0.110800000000     0.093820000000     0.288670000000     0          
C35      C      0.366200000000     0.332600000000     0.361720000000     0          
H18      H      0.401800000000     0.327500000000     0.342400000000     0          
O2       O      0.591420000000     0.537100000000     0.282100000000     0          
O3       O      0.634200000000     0.557570000000     0.358970000000     0          
O9       O      0.570510000000     0.606540000000     0.322040000000     0          
C8       C      0.615600000000     0.595160000000     0.349030000000     0          
C9       C      0.652500000000     0.627830000000     0.371420000000     0          
C10      C      0.816300000000     0.800540000000     0.450270000000     0          
H2       H      0.835500000000     0.825500000000     0.458500000000     0          
C11      C      0.756900000000     0.726800000000     0.426230000000     0          
C12      C      0.796600000000     0.772320000000     0.478730000000     0          
C13      C      0.700500000000     0.620180000000     0.399560000000     0          
H3       H      0.713100000000     0.593400000000     0.406200000000     0          
C15      C      0.666700000000     0.697940000000     0.380080000000     0          
H4       H      0.654900000000     0.724600000000     0.372500000000     0          
C17      C      0.733400000000     0.654740000000     0.420100000000     0          
H6       H      0.766300000000     0.650000000000     0.440900000000     0          
C18      C      0.777900000000     0.756210000000     0.398800000000     0          
H7       H      0.771300000000     0.751200000000     0.371200000000     0          
C19      C      0.808200000000     0.792590000000     0.410580000000     0          
C21      C      0.717800000000     0.692360000000     0.409980000000     0          
O10      O      0.928190000000     0.893160000000     0.260150000000     0          
O11      O      0.866780000000     0.943040000000     0.294160000000     0          
C24      C      0.768100000000     0.735120000000     0.466390000000     0          
C25      C      0.828500000000     0.821800000000     0.378630000000     0          
C26      C      0.815500000000     0.862300000000     0.383920000000     0          
H12      H      0.794300000000     0.871600000000     0.407900000000     0          
C28      C      0.878100000000     0.836040000000     0.313810000000     0          
H14      H      0.899500000000     0.826800000000     0.289900000000     0          
C29      C      0.833700000000     0.889750000000     0.353800000000     0          
H15      H      0.824600000000     0.917500000000     0.357500000000     0          
C30      C      0.860200000000     0.809060000000     0.343490000000     0          
H16      H      0.869800000000     0.781300000000     0.339800000000     0          
C33      C      0.864500000000     0.876730000000     0.319100000000     0          
C34      C      0.889200000000     0.906180000000     0.288670000000     0          
C35      C      0.633800000000     0.667400000000     0.361720000000     0          
H18      H      0.598200000000     0.672500000000     0.342400000000     0          
O2       O      0.408580000000     0.537100000000     0.717900000000     0          
O3       O      0.365800000000     0.557570000000     0.641030000000     0          
O9       O      0.429490000000     0.606540000000     0.677960000000     0          
C8       C      0.384400000000     0.595160000000     0.650970000000     0          
C9       C      0.347500000000     0.627830000000     0.628580000000     0          
C10      C      0.183700000000     0.800540000000     0.549730000000     0          
H2       H      0.164500000000     0.825500000000     0.541500000000     0          
C11      C      0.243100000000     0.726800000000     0.573770000000     0          
C12      C      0.203400000000     0.772320000000     0.521270000000     0          
C13      C      0.299500000000     0.620180000000     0.600440000000     0          
H3       H      0.286900000000     0.593400000000     0.593800000000     0          
C15      C      0.333300000000     0.697940000000     0.619920000000     0          
H4       H      0.345100000000     0.724600000000     0.627500000000     0          
C17      C      0.266600000000     0.654740000000     0.579900000000     0          
H6       H      0.233700000000     0.650000000000     0.559100000000     0          
C18      C      0.222100000000     0.756210000000     0.601200000000     0          
H7       H      0.228700000000     0.751200000000     0.628800000000     0          
C19      C      0.191800000000     0.792590000000     0.589420000000     0          
C21      C      0.282200000000     0.692360000000     0.590020000000     0          
O10      O      0.071810000000     0.893160000000     0.739850000000     0          
O11      O      0.133220000000     0.943040000000     0.705840000000     0          
C24      C      0.231900000000     0.735120000000     0.533610000000     0          
C25      C      0.171500000000     0.821800000000     0.621370000000     0          
C26      C      0.184500000000     0.862300000000     0.616080000000     0          
H12      H      0.205700000000     0.871600000000     0.592100000000     0          
C28      C      0.121900000000     0.836040000000     0.686190000000     0          
H14      H      0.100500000000     0.826800000000     0.710100000000     0          
C29      C      0.166300000000     0.889750000000     0.646200000000     0          
H15      H      0.175400000000     0.917500000000     0.642500000000     0          
C30      C      0.139800000000     0.809060000000     0.656510000000     0          
H16      H      0.130200000000     0.781300000000     0.660200000000     0          
C33      C      0.135500000000     0.876730000000     0.680900000000     0          
C34      C      0.110800000000     0.906180000000     0.711330000000     0          
C35      C      0.366200000000     0.667400000000     0.638280000000     0          
H18      H      0.401800000000     0.672500000000     0.657600000000     0          
O2       O      0.591420000000     0.462900000000     0.717900000000     0          
O3       O      0.634200000000     0.442430000000     0.641030000000     0          
O9       O      0.570510000000     0.393460000000     0.677960000000     0          
C8       C      0.615600000000     0.404840000000     0.650970000000     0          
C9       C      0.652500000000     0.372170000000     0.628580000000     0          
C10      C      0.816300000000     0.199460000000     0.549730000000     0          
H2       H      0.835500000000     0.174500000000     0.541500000000     0          
C11      C      0.756900000000     0.273200000000     0.573770000000     0          
C12      C      0.796600000000     0.227680000000     0.521270000000     0          
C13      C      0.700500000000     0.379820000000     0.600440000000     0          
H3       H      0.713100000000     0.406600000000     0.593800000000     0          
C15      C      0.666700000000     0.302060000000     0.619920000000     0          
H4       H      0.654900000000     0.275400000000     0.627500000000     0          
C17      C      0.733400000000     0.345260000000     0.579900000000     0          
H6       H      0.766300000000     0.350000000000     0.559100000000     0          
C18      C      0.777900000000     0.243790000000     0.601200000000     0          
H7       H      0.771300000000     0.248800000000     0.628800000000     0          
C19      C      0.808200000000     0.207410000000     0.589420000000     0          
C21      C      0.717800000000     0.307640000000     0.590020000000     0          
O10      O      0.928190000000     0.106840000000     0.739850000000     0          
O11      O      0.866780000000     0.056960000000     0.705840000000     0          
C24      C      0.768100000000     0.264880000000     0.533610000000     0          
C25      C      0.828500000000     0.178200000000     0.621370000000     0          
C26      C      0.815500000000     0.137700000000     0.616080000000     0          
H12      H      0.794300000000     0.128400000000     0.592100000000     0          
C28      C      0.878100000000     0.163960000000     0.686190000000     0          
H14      H      0.899500000000     0.173200000000     0.710100000000     0          
C29      C      0.833700000000     0.110250000000     0.646200000000     0          
H15      H      0.824600000000     0.082500000000     0.642500000000     0          
C30      C      0.860200000000     0.190940000000     0.656510000000     0          
H16      H      0.869800000000     0.218700000000     0.660200000000     0          
C33      C      0.864500000000     0.123270000000     0.680900000000     0          
C34      C      0.889200000000     0.093820000000     0.711330000000     0          
C35      C      0.633800000000     0.332600000000     0.638280000000     0          
H18      H      0.598200000000     0.327500000000     0.657600000000     0          


