data_NIHGUJ

_audit_creation_method RASPA-1.0
_audit_creation_date 2020-11-2
_audit_author_name 'Rocio Bueno-Perez'

_cell_length_a    20.8534
_cell_length_b    32.2081
_cell_length_c    33.4473
_cell_angle_alpha 90
_cell_angle_beta  90
_cell_angle_gamma 90
_cell_volume      22464.8

_symmetry_cell_setting          triclinic
_symmetry_space_group_name_Hall 'P 1'
_symmetry_space_group_name_H-M  'P 1'
_symmetry_Int_Tables_number     1

_symmetry_equiv_pos_as_xyz 'x,y,z'

loop_
_atom_site_label
_atom_site_type_symbol
_atom_site_fract_x
_atom_site_fract_y
_atom_site_fract_z
_atom_site_charge
O1       O      0.065540000000     0.110590000000     0.260410000000     0          
O2       O      0.120690000000     0.058370000000     0.294140000000     0          
O3       O      0.434790000000     0.389630000000     0.322620000000     0          
O4       O      0.378550000000     0.441290000000     0.359070000000     0          
O5       O      0.083700000000     0.038270000000     0.217990000000     0          
C6       C      0.101900000000     0.096300000000     0.289100000000     0          
C7       C      0.123900000000     0.125900000000     0.319320000000     0          
C8       C      0.149900000000     0.111200000000     0.355060000000     0          
H9       H      0.155200000000     0.082200000000     0.359100000000     0          
C10      C      0.168000000000     0.139200000000     0.384900000000     0          
H11      H      0.183400000000     0.128700000000     0.409700000000     0          
C12      C      0.164300000000     0.181500000000     0.379340000000     0          
C13      C      0.139200000000     0.196000000000     0.342830000000     0          
H14      H      0.136000000000     0.225100000000     0.338600000000     0          
C15      C      0.119000000000     0.169100000000     0.312700000000     0          
H16      H      0.102300000000     0.179600000000     0.288300000000     0          
C17      C      0.188100000000     0.209900000000     0.409720000000     0          
C18      C      0.177100000000     0.203100000000     0.449980000000     0          
H19      H      0.152800000000     0.179700000000     0.458400000000     0          
C20      C      0.202200000000     0.230900000000     0.478420000000     0          
C21      C      0.237900000000     0.265500000000     0.466850000000     0          
C22      C      0.248700000000     0.273500000000     0.426520000000     0          
C23      C      0.222200000000     0.244900000000     0.399140000000     0          
H24      H      0.228200000000     0.250200000000     0.371500000000     0          
C25      C      0.290500000000     0.306600000000     0.410400000000     0          
C26      C      0.284300000000     0.346400000000     0.421500000000     0          
H27      H      0.257100000000     0.352900000000     0.443400000000     0          
C28      C      0.317500000000     0.379300000000     0.401400000000     0          
H29      H      0.311000000000     0.407300000000     0.409300000000     0          
C30      C      0.358300000000     0.370300000000     0.371000000000     0          
C31      C      0.369700000000     0.328500000000     0.361200000000     0          
H32      H      0.401400000000     0.321700000000     0.341900000000     0          
C33      C      0.334500000000     0.297100000000     0.379700000000     0          
H34      H      0.340100000000     0.269100000000     0.371500000000     0          
C35      C      0.393400000000     0.402500000000     0.350060000000     0          
O36      O      0.565540000000     0.610590000000     0.760410000000     0          
O37      O      0.620690000000     0.558370000000     0.794140000000     0          
O38      O      0.934790000000     0.889630000000     0.822620000000     0          
O39      O      0.878550000000     0.941290000000     0.859070000000     0          
O40      O      0.583700000000     0.538270000000     0.717990000000     0          
C41      C      0.601900000000     0.596300000000     0.789100000000     0          
C42      C      0.623900000000     0.625900000000     0.819320000000     0          
C43      C      0.649900000000     0.611200000000     0.855060000000     0          
H44      H      0.655200000000     0.582200000000     0.859100000000     0          
C45      C      0.668000000000     0.639200000000     0.884900000000     0          
H46      H      0.683400000000     0.628700000000     0.909700000000     0          
C47      C      0.664300000000     0.681500000000     0.879340000000     0          
C48      C      0.639200000000     0.696000000000     0.842830000000     0          
H49      H      0.636000000000     0.725100000000     0.838600000000     0          
C50      C      0.619000000000     0.669100000000     0.812700000000     0          
H51      H      0.602300000000     0.679600000000     0.788300000000     0          
C52      C      0.688100000000     0.709900000000     0.909720000000     0          
C53      C      0.677100000000     0.703100000000     0.949980000000     0          
H54      H      0.652800000000     0.679700000000     0.958400000000     0          
C55      C      0.702200000000     0.730900000000     0.978420000000     0          
C56      C      0.737900000000     0.765500000000     0.966850000000     0          
C57      C      0.748700000000     0.773500000000     0.926520000000     0          
C58      C      0.722200000000     0.744900000000     0.899140000000     0          
H59      H      0.728200000000     0.750200000000     0.871500000000     0          
C60      C      0.790500000000     0.806600000000     0.910400000000     0          
C61      C      0.784300000000     0.846400000000     0.921500000000     0          
H62      H      0.757100000000     0.852900000000     0.943400000000     0          
C63      C      0.817500000000     0.879300000000     0.901400000000     0          
H64      H      0.811000000000     0.907300000000     0.909300000000     0          
C65      C      0.858300000000     0.870300000000     0.871000000000     0          
C66      C      0.869700000000     0.828500000000     0.861200000000     0          
H67      H      0.901400000000     0.821700000000     0.841900000000     0          
C68      C      0.834500000000     0.797100000000     0.879700000000     0          
H69      H      0.840100000000     0.769100000000     0.871500000000     0          
C70      C      0.893400000000     0.902500000000     0.850060000000     0          
O71      O      0.934460000000     0.889410000000     0.260410000000     0          
O72      O      0.879310000000     0.941630000000     0.294140000000     0          
O73      O      0.565210000000     0.610370000000     0.322620000000     0          
O74      O      0.621450000000     0.558710000000     0.359070000000     0          
O75      O      0.916300000000     0.961730000000     0.217990000000     0          
C76      C      0.898100000000     0.903700000000     0.289100000000     0          
C77      C      0.876100000000     0.874100000000     0.319320000000     0          
C78      C      0.850100000000     0.888800000000     0.355060000000     0          
H79      H      0.844800000000     0.917800000000     0.359100000000     0          
C80      C      0.832000000000     0.860800000000     0.384900000000     0          
H81      H      0.816600000000     0.871300000000     0.409700000000     0          
C82      C      0.835700000000     0.818500000000     0.379340000000     0          
C83      C      0.860800000000     0.804000000000     0.342830000000     0          
H84      H      0.864000000000     0.774900000000     0.338600000000     0          
C85      C      0.881000000000     0.830900000000     0.312700000000     0          
H86      H      0.897700000000     0.820400000000     0.288300000000     0          
C87      C      0.811900000000     0.790100000000     0.409720000000     0          
C88      C      0.822900000000     0.796900000000     0.449980000000     0          
H89      H      0.847200000000     0.820300000000     0.458400000000     0          
C90      C      0.797800000000     0.769100000000     0.478420000000     0          
C91      C      0.762100000000     0.734500000000     0.466850000000     0          
C92      C      0.751300000000     0.726500000000     0.426520000000     0          
C93      C      0.777800000000     0.755100000000     0.399140000000     0          
H94      H      0.771800000000     0.749800000000     0.371500000000     0          
C95      C      0.709500000000     0.693400000000     0.410400000000     0          
C96      C      0.715700000000     0.653600000000     0.421500000000     0          
H97      H      0.742900000000     0.647100000000     0.443400000000     0          
C98      C      0.682500000000     0.620700000000     0.401400000000     0          
H99      H      0.689000000000     0.592700000000     0.409300000000     0          
C100     C      0.641700000000     0.629700000000     0.371000000000     0          
C101     C      0.630300000000     0.671500000000     0.361200000000     0          
H102     H      0.598600000000     0.678300000000     0.341900000000     0          
C103     C      0.665500000000     0.702900000000     0.379700000000     0          
H104     H      0.659900000000     0.730900000000     0.371500000000     0          
C105     C      0.606600000000     0.597500000000     0.350060000000     0          
O106     O      0.434460000000     0.389410000000     0.760410000000     0          
O107     O      0.379310000000     0.441630000000     0.794140000000     0          
O108     O      0.065210000000     0.110370000000     0.822620000000     0          
O109     O      0.121450000000     0.058710000000     0.859070000000     0          
O110     O      0.416300000000     0.461730000000     0.717990000000     0          
C111     C      0.398100000000     0.403700000000     0.789100000000     0          
C112     C      0.376100000000     0.374100000000     0.819320000000     0          
C113     C      0.350100000000     0.388800000000     0.855060000000     0          
H114     H      0.344800000000     0.417800000000     0.859100000000     0          
C115     C      0.332000000000     0.360800000000     0.884900000000     0          
H116     H      0.316600000000     0.371300000000     0.909700000000     0          
C117     C      0.335700000000     0.318500000000     0.879340000000     0          
C118     C      0.360800000000     0.304000000000     0.842830000000     0          
H119     H      0.364000000000     0.274900000000     0.838600000000     0          
C120     C      0.381000000000     0.330900000000     0.812700000000     0          
H121     H      0.397700000000     0.320400000000     0.788300000000     0          
C122     C      0.311900000000     0.290100000000     0.909720000000     0          
C123     C      0.322900000000     0.296900000000     0.949980000000     0          
H124     H      0.347200000000     0.320300000000     0.958400000000     0          
C125     C      0.297800000000     0.269100000000     0.978420000000     0          
C126     C      0.262100000000     0.234500000000     0.966850000000     0          
C127     C      0.251300000000     0.226500000000     0.926520000000     0          
C128     C      0.277800000000     0.255100000000     0.899140000000     0          
H129     H      0.271800000000     0.249800000000     0.871500000000     0          
C130     C      0.209500000000     0.193400000000     0.910400000000     0          
C131     C      0.215700000000     0.153600000000     0.921500000000     0          
H132     H      0.242900000000     0.147100000000     0.943400000000     0          
C133     C      0.182500000000     0.120700000000     0.901400000000     0          
H134     H      0.189000000000     0.092700000000     0.909300000000     0          
C135     C      0.141700000000     0.129700000000     0.871000000000     0          
C136     C      0.130300000000     0.171500000000     0.861200000000     0          
H137     H      0.098600000000     0.178300000000     0.841900000000     0          
C138     C      0.165500000000     0.202900000000     0.879700000000     0          
H139     H      0.159900000000     0.230900000000     0.871500000000     0          
C140     C      0.106600000000     0.097500000000     0.850060000000     0          
O141     O      0.934460000000     0.110590000000     0.739590000000     0          
O142     O      0.879310000000     0.058370000000     0.705860000000     0          
O143     O      0.565210000000     0.389630000000     0.677380000000     0          
O144     O      0.621450000000     0.441290000000     0.640930000000     0          
O145     O      0.916300000000     0.038270000000     0.782010000000     0          
C146     C      0.898100000000     0.096300000000     0.710900000000     0          
C147     C      0.876100000000     0.125900000000     0.680680000000     0          
C148     C      0.850100000000     0.111200000000     0.644940000000     0          
H149     H      0.844800000000     0.082200000000     0.640900000000     0          
C150     C      0.832000000000     0.139200000000     0.615100000000     0          
H151     H      0.816600000000     0.128700000000     0.590300000000     0          
C152     C      0.835700000000     0.181500000000     0.620660000000     0          
C153     C      0.860800000000     0.196000000000     0.657170000000     0          
H154     H      0.864000000000     0.225100000000     0.661400000000     0          
C155     C      0.881000000000     0.169100000000     0.687300000000     0          
H156     H      0.897700000000     0.179600000000     0.711700000000     0          
C157     C      0.811900000000     0.209900000000     0.590280000000     0          
C158     C      0.822900000000     0.203100000000     0.550020000000     0          
H159     H      0.847200000000     0.179700000000     0.541600000000     0          
C160     C      0.797800000000     0.230900000000     0.521580000000     0          
C161     C      0.762100000000     0.265500000000     0.533150000000     0          
C162     C      0.751300000000     0.273500000000     0.573480000000     0          
C163     C      0.777800000000     0.244900000000     0.600860000000     0          
H164     H      0.771800000000     0.250200000000     0.628500000000     0          
C165     C      0.709500000000     0.306600000000     0.589600000000     0          
C166     C      0.715700000000     0.346400000000     0.578500000000     0          
H167     H      0.742900000000     0.352900000000     0.556600000000     0          
C168     C      0.682500000000     0.379300000000     0.598600000000     0          
H169     H      0.689000000000     0.407300000000     0.590700000000     0          
C170     C      0.641700000000     0.370300000000     0.629000000000     0          
C171     C      0.630300000000     0.328500000000     0.638800000000     0          
H172     H      0.598600000000     0.321700000000     0.658100000000     0          
C173     C      0.665500000000     0.297100000000     0.620300000000     0          
H174     H      0.659900000000     0.269100000000     0.628500000000     0          
C175     C      0.606600000000     0.402500000000     0.649940000000     0          
O176     O      0.434460000000     0.610590000000     0.239590000000     0          
O177     O      0.379310000000     0.558370000000     0.205860000000     0          
O178     O      0.065210000000     0.889630000000     0.177380000000     0          
O179     O      0.121450000000     0.941290000000     0.140930000000     0          
O180     O      0.416300000000     0.538270000000     0.282010000000     0          
C181     C      0.398100000000     0.596300000000     0.210900000000     0          
C182     C      0.376100000000     0.625900000000     0.180680000000     0          
C183     C      0.350100000000     0.611200000000     0.144940000000     0          
H184     H      0.344800000000     0.582200000000     0.140900000000     0          
C185     C      0.332000000000     0.639200000000     0.115100000000     0          
H186     H      0.316600000000     0.628700000000     0.090300000000     0          
C187     C      0.335700000000     0.681500000000     0.120660000000     0          
C188     C      0.360800000000     0.696000000000     0.157170000000     0          
H189     H      0.364000000000     0.725100000000     0.161400000000     0          
C190     C      0.381000000000     0.669100000000     0.187300000000     0          
H191     H      0.397700000000     0.679600000000     0.211700000000     0          
C192     C      0.311900000000     0.709900000000     0.090280000000     0          
C193     C      0.322900000000     0.703100000000     0.050020000000     0          
H194     H      0.347200000000     0.679700000000     0.041600000000     0          
C195     C      0.297800000000     0.730900000000     0.021580000000     0          
C196     C      0.262100000000     0.765500000000     0.033150000000     0          
C197     C      0.251300000000     0.773500000000     0.073480000000     0          
C198     C      0.277800000000     0.744900000000     0.100860000000     0          
H199     H      0.271800000000     0.750200000000     0.128500000000     0          
C200     C      0.209500000000     0.806600000000     0.089600000000     0          
C201     C      0.215700000000     0.846400000000     0.078500000000     0          
H202     H      0.242900000000     0.852900000000     0.056600000000     0          
C203     C      0.182500000000     0.879300000000     0.098600000000     0          
H204     H      0.189000000000     0.907300000000     0.090700000000     0          
C205     C      0.141700000000     0.870300000000     0.129000000000     0          
C206     C      0.130300000000     0.828500000000     0.138800000000     0          
H207     H      0.098600000000     0.821700000000     0.158100000000     0          
C208     C      0.165500000000     0.797100000000     0.120300000000     0          
H209     H      0.159900000000     0.769100000000     0.128500000000     0          
C210     C      0.106600000000     0.902500000000     0.149940000000     0          
O211     O      0.065540000000     0.889410000000     0.739590000000     0          
O212     O      0.120690000000     0.941630000000     0.705860000000     0          
O213     O      0.434790000000     0.610370000000     0.677380000000     0          
O214     O      0.378550000000     0.558710000000     0.640930000000     0          
O215     O      0.083700000000     0.961730000000     0.782010000000     0          
C216     C      0.101900000000     0.903700000000     0.710900000000     0          
C217     C      0.123900000000     0.874100000000     0.680680000000     0          
C218     C      0.149900000000     0.888800000000     0.644940000000     0          
H219     H      0.155200000000     0.917800000000     0.640900000000     0          
C220     C      0.168000000000     0.860800000000     0.615100000000     0          
H221     H      0.183400000000     0.871300000000     0.590300000000     0          
C222     C      0.164300000000     0.818500000000     0.620660000000     0          
C223     C      0.139200000000     0.804000000000     0.657170000000     0          
H224     H      0.136000000000     0.774900000000     0.661400000000     0          
C225     C      0.119000000000     0.830900000000     0.687300000000     0          
H226     H      0.102300000000     0.820400000000     0.711700000000     0          
C227     C      0.188100000000     0.790100000000     0.590280000000     0          
C228     C      0.177100000000     0.796900000000     0.550020000000     0          
H229     H      0.152800000000     0.820300000000     0.541600000000     0          
C230     C      0.202200000000     0.769100000000     0.521580000000     0          
C231     C      0.237900000000     0.734500000000     0.533150000000     0          
C232     C      0.248700000000     0.726500000000     0.573480000000     0          
C233     C      0.222200000000     0.755100000000     0.600860000000     0          
H234     H      0.228200000000     0.749800000000     0.628500000000     0          
C235     C      0.290500000000     0.693400000000     0.589600000000     0          
C236     C      0.284300000000     0.653600000000     0.578500000000     0          
H237     H      0.257100000000     0.647100000000     0.556600000000     0          
C238     C      0.317500000000     0.620700000000     0.598600000000     0          
H239     H      0.311000000000     0.592700000000     0.590700000000     0          
C240     C      0.358300000000     0.629700000000     0.629000000000     0          
C241     C      0.369700000000     0.671500000000     0.638800000000     0          
H242     H      0.401400000000     0.678300000000     0.658100000000     0          
C243     C      0.334500000000     0.702900000000     0.620300000000     0          
H244     H      0.340100000000     0.730900000000     0.628500000000     0          
C245     C      0.393400000000     0.597500000000     0.649940000000     0          
O246     O      0.565540000000     0.389410000000     0.239590000000     0          
O247     O      0.620690000000     0.441630000000     0.205860000000     0          
O248     O      0.934790000000     0.110370000000     0.177380000000     0          
O249     O      0.878550000000     0.058710000000     0.140930000000     0          
O250     O      0.583700000000     0.461730000000     0.282010000000     0          
C251     C      0.601900000000     0.403700000000     0.210900000000     0          
C252     C      0.623900000000     0.374100000000     0.180680000000     0          
C253     C      0.649900000000     0.388800000000     0.144940000000     0          
H254     H      0.655200000000     0.417800000000     0.140900000000     0          
C255     C      0.668000000000     0.360800000000     0.115100000000     0          
H256     H      0.683400000000     0.371300000000     0.090300000000     0          
C257     C      0.664300000000     0.318500000000     0.120660000000     0          
C258     C      0.639200000000     0.304000000000     0.157170000000     0          
H259     H      0.636000000000     0.274900000000     0.161400000000     0          
C260     C      0.619000000000     0.330900000000     0.187300000000     0          
H261     H      0.602300000000     0.320400000000     0.211700000000     0          
C262     C      0.688100000000     0.290100000000     0.090280000000     0          
C263     C      0.677100000000     0.296900000000     0.050020000000     0          
H264     H      0.652800000000     0.320300000000     0.041600000000     0          
C265     C      0.702200000000     0.269100000000     0.021580000000     0          
C266     C      0.737900000000     0.234500000000     0.033150000000     0          
C267     C      0.748700000000     0.226500000000     0.073480000000     0          
C268     C      0.722200000000     0.255100000000     0.100860000000     0          
H269     H      0.728200000000     0.249800000000     0.128500000000     0          
C270     C      0.790500000000     0.193400000000     0.089600000000     0          
C271     C      0.784300000000     0.153600000000     0.078500000000     0          
H272     H      0.757100000000     0.147100000000     0.056600000000     0          
C273     C      0.817500000000     0.120700000000     0.098600000000     0          
H274     H      0.811000000000     0.092700000000     0.090700000000     0          
C275     C      0.858300000000     0.129700000000     0.129000000000     0          
C276     C      0.869700000000     0.171500000000     0.138800000000     0          
H277     H      0.901400000000     0.178300000000     0.158100000000     0          
C278     C      0.834500000000     0.202900000000     0.120300000000     0          
H279     H      0.840100000000     0.230900000000     0.128500000000     0          
C280     C      0.893400000000     0.097500000000     0.149940000000     0          
O281     O      0.934460000000     0.889410000000     0.739590000000     0          
O282     O      0.879310000000     0.941630000000     0.705860000000     0          
O283     O      0.565210000000     0.610370000000     0.677380000000     0          
O284     O      0.621450000000     0.558710000000     0.640930000000     0          
O285     O      0.916300000000     0.961730000000     0.782010000000     0          
C286     C      0.898100000000     0.903700000000     0.710900000000     0          
C287     C      0.876100000000     0.874100000000     0.680680000000     0          
C288     C      0.850100000000     0.888800000000     0.644940000000     0          
H289     H      0.844800000000     0.917800000000     0.640900000000     0          
C290     C      0.832000000000     0.860800000000     0.615100000000     0          
H291     H      0.816600000000     0.871300000000     0.590300000000     0          
C292     C      0.835700000000     0.818500000000     0.620660000000     0          
C293     C      0.860800000000     0.804000000000     0.657170000000     0          
H294     H      0.864000000000     0.774900000000     0.661400000000     0          
C295     C      0.881000000000     0.830900000000     0.687300000000     0          
H296     H      0.897700000000     0.820400000000     0.711700000000     0          
C297     C      0.811900000000     0.790100000000     0.590280000000     0          
C298     C      0.822900000000     0.796900000000     0.550020000000     0          
H299     H      0.847200000000     0.820300000000     0.541600000000     0          
C300     C      0.797800000000     0.769100000000     0.521580000000     0          
C301     C      0.762100000000     0.734500000000     0.533150000000     0          
C302     C      0.751300000000     0.726500000000     0.573480000000     0          
C303     C      0.777800000000     0.755100000000     0.600860000000     0          
H304     H      0.771800000000     0.749800000000     0.628500000000     0          
C305     C      0.709500000000     0.693400000000     0.589600000000     0          
C306     C      0.715700000000     0.653600000000     0.578500000000     0          
H307     H      0.742900000000     0.647100000000     0.556600000000     0          
C308     C      0.682500000000     0.620700000000     0.598600000000     0          
H309     H      0.689000000000     0.592700000000     0.590700000000     0          
C310     C      0.641700000000     0.629700000000     0.629000000000     0          
C311     C      0.630300000000     0.671500000000     0.638800000000     0          
H312     H      0.598600000000     0.678300000000     0.658100000000     0          
C313     C      0.665500000000     0.702900000000     0.620300000000     0          
H314     H      0.659900000000     0.730900000000     0.628500000000     0          
C315     C      0.606600000000     0.597500000000     0.649940000000     0          
O316     O      0.434460000000     0.389410000000     0.239590000000     0          
O317     O      0.379310000000     0.441630000000     0.205860000000     0          
O318     O      0.065210000000     0.110370000000     0.177380000000     0          
O319     O      0.121450000000     0.058710000000     0.140930000000     0          
O320     O      0.416300000000     0.461730000000     0.282010000000     0          
C321     C      0.398100000000     0.403700000000     0.210900000000     0          
C322     C      0.376100000000     0.374100000000     0.180680000000     0          
C323     C      0.350100000000     0.388800000000     0.144940000000     0          
H324     H      0.344800000000     0.417800000000     0.140900000000     0          
C325     C      0.332000000000     0.360800000000     0.115100000000     0          
H326     H      0.316600000000     0.371300000000     0.090300000000     0          
C327     C      0.335700000000     0.318500000000     0.120660000000     0          
C328     C      0.360800000000     0.304000000000     0.157170000000     0          
H329     H      0.364000000000     0.274900000000     0.161400000000     0          
C330     C      0.381000000000     0.330900000000     0.187300000000     0          
H331     H      0.397700000000     0.320400000000     0.211700000000     0          
C332     C      0.311900000000     0.290100000000     0.090280000000     0          
C333     C      0.322900000000     0.296900000000     0.050020000000     0          
H334     H      0.347200000000     0.320300000000     0.041600000000     0          
C335     C      0.297800000000     0.269100000000     0.021580000000     0          
C336     C      0.262100000000     0.234500000000     0.033150000000     0          
C337     C      0.251300000000     0.226500000000     0.073480000000     0          
C338     C      0.277800000000     0.255100000000     0.100860000000     0          
H339     H      0.271800000000     0.249800000000     0.128500000000     0          
C340     C      0.209500000000     0.193400000000     0.089600000000     0          
C341     C      0.215700000000     0.153600000000     0.078500000000     0          
H342     H      0.242900000000     0.147100000000     0.056600000000     0          
C343     C      0.182500000000     0.120700000000     0.098600000000     0          
H344     H      0.189000000000     0.092700000000     0.090700000000     0          
C345     C      0.141700000000     0.129700000000     0.129000000000     0          
C346     C      0.130300000000     0.171500000000     0.138800000000     0          
H347     H      0.098600000000     0.178300000000     0.158100000000     0          
C348     C      0.165500000000     0.202900000000     0.120300000000     0          
H349     H      0.159900000000     0.230900000000     0.128500000000     0          
C350     C      0.106600000000     0.097500000000     0.149940000000     0          
O351     O      0.065540000000     0.110590000000     0.739590000000     0          
O352     O      0.120690000000     0.058370000000     0.705860000000     0          
O353     O      0.434790000000     0.389630000000     0.677380000000     0          
O354     O      0.378550000000     0.441290000000     0.640930000000     0          
O355     O      0.083700000000     0.038270000000     0.782010000000     0          
C356     C      0.101900000000     0.096300000000     0.710900000000     0          
C357     C      0.123900000000     0.125900000000     0.680680000000     0          
C358     C      0.149900000000     0.111200000000     0.644940000000     0          
H359     H      0.155200000000     0.082200000000     0.640900000000     0          
C360     C      0.168000000000     0.139200000000     0.615100000000     0          
H361     H      0.183400000000     0.128700000000     0.590300000000     0          
C362     C      0.164300000000     0.181500000000     0.620660000000     0          
C363     C      0.139200000000     0.196000000000     0.657170000000     0          
H364     H      0.136000000000     0.225100000000     0.661400000000     0          
C365     C      0.119000000000     0.169100000000     0.687300000000     0          
H366     H      0.102300000000     0.179600000000     0.711700000000     0          
C367     C      0.188100000000     0.209900000000     0.590280000000     0          
C368     C      0.177100000000     0.203100000000     0.550020000000     0          
H369     H      0.152800000000     0.179700000000     0.541600000000     0          
C370     C      0.202200000000     0.230900000000     0.521580000000     0          
C371     C      0.237900000000     0.265500000000     0.533150000000     0          
C372     C      0.248700000000     0.273500000000     0.573480000000     0          
C373     C      0.222200000000     0.244900000000     0.600860000000     0          
H374     H      0.228200000000     0.250200000000     0.628500000000     0          
C375     C      0.290500000000     0.306600000000     0.589600000000     0          
C376     C      0.284300000000     0.346400000000     0.578500000000     0          
H377     H      0.257100000000     0.352900000000     0.556600000000     0          
C378     C      0.317500000000     0.379300000000     0.598600000000     0          
H379     H      0.311000000000     0.407300000000     0.590700000000     0          
C380     C      0.358300000000     0.370300000000     0.629000000000     0          
C381     C      0.369700000000     0.328500000000     0.638800000000     0          
H382     H      0.401400000000     0.321700000000     0.658100000000     0          
C383     C      0.334500000000     0.297100000000     0.620300000000     0          
H384     H      0.340100000000     0.269100000000     0.628500000000     0          
C385     C      0.393400000000     0.402500000000     0.649940000000     0          
O386     O      0.565540000000     0.610590000000     0.239590000000     0          
O387     O      0.620690000000     0.558370000000     0.205860000000     0          
O388     O      0.934790000000     0.889630000000     0.177380000000     0          
O389     O      0.878550000000     0.941290000000     0.140930000000     0          
O390     O      0.583700000000     0.538270000000     0.282010000000     0          
C391     C      0.601900000000     0.596300000000     0.210900000000     0          
C392     C      0.623900000000     0.625900000000     0.180680000000     0          
C393     C      0.649900000000     0.611200000000     0.144940000000     0          
H394     H      0.655200000000     0.582200000000     0.140900000000     0          
C395     C      0.668000000000     0.639200000000     0.115100000000     0          
H396     H      0.683400000000     0.628700000000     0.090300000000     0          
C397     C      0.664300000000     0.681500000000     0.120660000000     0          
C398     C      0.639200000000     0.696000000000     0.157170000000     0          
H399     H      0.636000000000     0.725100000000     0.161400000000     0          
C400     C      0.619000000000     0.669100000000     0.187300000000     0          
H401     H      0.602300000000     0.679600000000     0.211700000000     0          
C402     C      0.688100000000     0.709900000000     0.090280000000     0          
C403     C      0.677100000000     0.703100000000     0.050020000000     0          
H404     H      0.652800000000     0.679700000000     0.041600000000     0          
C405     C      0.702200000000     0.730900000000     0.021580000000     0          
C406     C      0.737900000000     0.765500000000     0.033150000000     0          
C407     C      0.748700000000     0.773500000000     0.073480000000     0          
C408     C      0.722200000000     0.744900000000     0.100860000000     0          
H409     H      0.728200000000     0.750200000000     0.128500000000     0          
C410     C      0.790500000000     0.806600000000     0.089600000000     0          
C411     C      0.784300000000     0.846400000000     0.078500000000     0          
H412     H      0.757100000000     0.852900000000     0.056600000000     0          
C413     C      0.817500000000     0.879300000000     0.098600000000     0          
H414     H      0.811000000000     0.907300000000     0.090700000000     0          
C415     C      0.858300000000     0.870300000000     0.129000000000     0          
C416     C      0.869700000000     0.828500000000     0.138800000000     0          
H417     H      0.901400000000     0.821700000000     0.158100000000     0          
C418     C      0.834500000000     0.797100000000     0.120300000000     0          
H419     H      0.840100000000     0.769100000000     0.128500000000     0          
C420     C      0.893400000000     0.902500000000     0.149940000000     0          
O421     O      0.065540000000     0.889410000000     0.260410000000     0          
O422     O      0.120690000000     0.941630000000     0.294140000000     0          
O423     O      0.434790000000     0.610370000000     0.322620000000     0          
O424     O      0.378550000000     0.558710000000     0.359070000000     0          
O425     O      0.083700000000     0.961730000000     0.217990000000     0          
C426     C      0.101900000000     0.903700000000     0.289100000000     0          
C427     C      0.123900000000     0.874100000000     0.319320000000     0          
C428     C      0.149900000000     0.888800000000     0.355060000000     0          
H429     H      0.155200000000     0.917800000000     0.359100000000     0          
C430     C      0.168000000000     0.860800000000     0.384900000000     0          
H431     H      0.183400000000     0.871300000000     0.409700000000     0          
C432     C      0.164300000000     0.818500000000     0.379340000000     0          
C433     C      0.139200000000     0.804000000000     0.342830000000     0          
H434     H      0.136000000000     0.774900000000     0.338600000000     0          
C435     C      0.119000000000     0.830900000000     0.312700000000     0          
H436     H      0.102300000000     0.820400000000     0.288300000000     0          
C437     C      0.188100000000     0.790100000000     0.409720000000     0          
C438     C      0.177100000000     0.796900000000     0.449980000000     0          
H439     H      0.152800000000     0.820300000000     0.458400000000     0          
C440     C      0.202200000000     0.769100000000     0.478420000000     0          
C441     C      0.237900000000     0.734500000000     0.466850000000     0          
C442     C      0.248700000000     0.726500000000     0.426520000000     0          
C443     C      0.222200000000     0.755100000000     0.399140000000     0          
H444     H      0.228200000000     0.749800000000     0.371500000000     0          
C445     C      0.290500000000     0.693400000000     0.410400000000     0          
C446     C      0.284300000000     0.653600000000     0.421500000000     0          
H447     H      0.257100000000     0.647100000000     0.443400000000     0          
C448     C      0.317500000000     0.620700000000     0.401400000000     0          
H449     H      0.311000000000     0.592700000000     0.409300000000     0          
C450     C      0.358300000000     0.629700000000     0.371000000000     0          
C451     C      0.369700000000     0.671500000000     0.361200000000     0          
H452     H      0.401400000000     0.678300000000     0.341900000000     0          
C453     C      0.334500000000     0.702900000000     0.379700000000     0          
H454     H      0.340100000000     0.730900000000     0.371500000000     0          
C455     C      0.393400000000     0.597500000000     0.350060000000     0          
O456     O      0.565540000000     0.389410000000     0.760410000000     0          
O457     O      0.620690000000     0.441630000000     0.794140000000     0          
O458     O      0.934790000000     0.110370000000     0.822620000000     0          
O459     O      0.878550000000     0.058710000000     0.859070000000     0          
O460     O      0.583700000000     0.461730000000     0.717990000000     0          
C461     C      0.601900000000     0.403700000000     0.789100000000     0          
C462     C      0.623900000000     0.374100000000     0.819320000000     0          
C463     C      0.649900000000     0.388800000000     0.855060000000     0          
H464     H      0.655200000000     0.417800000000     0.859100000000     0          
C465     C      0.668000000000     0.360800000000     0.884900000000     0          
H466     H      0.683400000000     0.371300000000     0.909700000000     0          
C467     C      0.664300000000     0.318500000000     0.879340000000     0          
C468     C      0.639200000000     0.304000000000     0.842830000000     0          
H469     H      0.636000000000     0.274900000000     0.838600000000     0          
C470     C      0.619000000000     0.330900000000     0.812700000000     0          
H471     H      0.602300000000     0.320400000000     0.788300000000     0          
C472     C      0.688100000000     0.290100000000     0.909720000000     0          
C473     C      0.677100000000     0.296900000000     0.949980000000     0          
H474     H      0.652800000000     0.320300000000     0.958400000000     0          
C475     C      0.702200000000     0.269100000000     0.978420000000     0          
C476     C      0.737900000000     0.234500000000     0.966850000000     0          
C477     C      0.748700000000     0.226500000000     0.926520000000     0          
C478     C      0.722200000000     0.255100000000     0.899140000000     0          
H479     H      0.728200000000     0.249800000000     0.871500000000     0          
C480     C      0.790500000000     0.193400000000     0.910400000000     0          
C481     C      0.784300000000     0.153600000000     0.921500000000     0          
H482     H      0.757100000000     0.147100000000     0.943400000000     0          
C483     C      0.817500000000     0.120700000000     0.901400000000     0          
H484     H      0.811000000000     0.092700000000     0.909300000000     0          
C485     C      0.858300000000     0.129700000000     0.871000000000     0          
C486     C      0.869700000000     0.171500000000     0.861200000000     0          
H487     H      0.901400000000     0.178300000000     0.841900000000     0          
C488     C      0.834500000000     0.202900000000     0.879700000000     0          
H489     H      0.840100000000     0.230900000000     0.871500000000     0          
C490     C      0.893400000000     0.097500000000     0.850060000000     0          
O491     O      0.934460000000     0.110590000000     0.260410000000     0          
O492     O      0.879310000000     0.058370000000     0.294140000000     0          
O493     O      0.565210000000     0.389630000000     0.322620000000     0          
O494     O      0.621450000000     0.441290000000     0.359070000000     0          
O495     O      0.916300000000     0.038270000000     0.217990000000     0          
C496     C      0.898100000000     0.096300000000     0.289100000000     0          
C497     C      0.876100000000     0.125900000000     0.319320000000     0          
C498     C      0.850100000000     0.111200000000     0.355060000000     0          
H499     H      0.844800000000     0.082200000000     0.359100000000     0          
C500     C      0.832000000000     0.139200000000     0.384900000000     0          
H501     H      0.816600000000     0.128700000000     0.409700000000     0          
C502     C      0.835700000000     0.181500000000     0.379340000000     0          
C503     C      0.860800000000     0.196000000000     0.342830000000     0          
H504     H      0.864000000000     0.225100000000     0.338600000000     0          
C505     C      0.881000000000     0.169100000000     0.312700000000     0          
H506     H      0.897700000000     0.179600000000     0.288300000000     0          
C507     C      0.811900000000     0.209900000000     0.409720000000     0          
C508     C      0.822900000000     0.203100000000     0.449980000000     0          
H509     H      0.847200000000     0.179700000000     0.458400000000     0          
C510     C      0.797800000000     0.230900000000     0.478420000000     0          
C511     C      0.762100000000     0.265500000000     0.466850000000     0          
C512     C      0.751300000000     0.273500000000     0.426520000000     0          
C513     C      0.777800000000     0.244900000000     0.399140000000     0          
H514     H      0.771800000000     0.250200000000     0.371500000000     0          
C515     C      0.709500000000     0.306600000000     0.410400000000     0          
C516     C      0.715700000000     0.346400000000     0.421500000000     0          
H517     H      0.742900000000     0.352900000000     0.443400000000     0          
C518     C      0.682500000000     0.379300000000     0.401400000000     0          
H519     H      0.689000000000     0.407300000000     0.409300000000     0          
C520     C      0.641700000000     0.370300000000     0.371000000000     0          
C521     C      0.630300000000     0.328500000000     0.361200000000     0          
H522     H      0.598600000000     0.321700000000     0.341900000000     0          
C523     C      0.665500000000     0.297100000000     0.379700000000     0          
H524     H      0.659900000000     0.269100000000     0.371500000000     0          
C525     C      0.606600000000     0.402500000000     0.350060000000     0          
O526     O      0.434460000000     0.610590000000     0.760410000000     0          
O527     O      0.379310000000     0.558370000000     0.794140000000     0          
O528     O      0.065210000000     0.889630000000     0.822620000000     0          
O529     O      0.121450000000     0.941290000000     0.859070000000     0          
O530     O      0.416300000000     0.538270000000     0.717990000000     0          
C531     C      0.398100000000     0.596300000000     0.789100000000     0          
C532     C      0.376100000000     0.625900000000     0.819320000000     0          
C533     C      0.350100000000     0.611200000000     0.855060000000     0          
H534     H      0.344800000000     0.582200000000     0.859100000000     0          
C535     C      0.332000000000     0.639200000000     0.884900000000     0          
H536     H      0.316600000000     0.628700000000     0.909700000000     0          
C537     C      0.335700000000     0.681500000000     0.879340000000     0          
C538     C      0.360800000000     0.696000000000     0.842830000000     0          
H539     H      0.364000000000     0.725100000000     0.838600000000     0          
C540     C      0.381000000000     0.669100000000     0.812700000000     0          
H541     H      0.397700000000     0.679600000000     0.788300000000     0          
C542     C      0.311900000000     0.709900000000     0.909720000000     0          
C543     C      0.322900000000     0.703100000000     0.949980000000     0          
H544     H      0.347200000000     0.679700000000     0.958400000000     0          
C545     C      0.297800000000     0.730900000000     0.978420000000     0          
C546     C      0.262100000000     0.765500000000     0.966850000000     0          
C547     C      0.251300000000     0.773500000000     0.926520000000     0          
C548     C      0.277800000000     0.744900000000     0.899140000000     0          
H549     H      0.271800000000     0.750200000000     0.871500000000     0          
C550     C      0.209500000000     0.806600000000     0.910400000000     0          
C551     C      0.215700000000     0.846400000000     0.921500000000     0          
H552     H      0.242900000000     0.852900000000     0.943400000000     0          
C553     C      0.182500000000     0.879300000000     0.901400000000     0          
H554     H      0.189000000000     0.907300000000     0.909300000000     0          
C555     C      0.141700000000     0.870300000000     0.871000000000     0          
C556     C      0.130300000000     0.828500000000     0.861200000000     0          
H557     H      0.098600000000     0.821700000000     0.841900000000     0          
C558     C      0.165500000000     0.797100000000     0.879700000000     0          
H559     H      0.159900000000     0.769100000000     0.871500000000     0          
C560     C      0.106600000000     0.902500000000     0.850060000000     0          
Zr561    Zr     0.000000000000     0.076810000000     0.218340000000     0          
O562     O      0.000000000000     0.038340000000     0.166590000000     0          
O563     O      0.000000000000     0.038150000000     0.270480000000     0          
Zr564    Zr     0.500000000000     0.576810000000     0.718340000000     0          
O565     O      0.500000000000     0.538340000000     0.666590000000     0          
O566     O      0.500000000000     0.538150000000     0.770480000000     0          
Zr567    Zr     0.000000000000     0.923190000000     0.218340000000     0          
O568     O      0.000000000000     0.961660000000     0.166590000000     0          
O569     O      0.000000000000     0.961850000000     0.270480000000     0          
Zr570    Zr     0.500000000000     0.423190000000     0.718340000000     0          
O571     O      0.500000000000     0.461660000000     0.666590000000     0          
O572     O      0.500000000000     0.461850000000     0.770480000000     0          
Zr573    Zr     0.000000000000     0.076810000000     0.781660000000     0          
O574     O      0.000000000000     0.038340000000     0.833410000000     0          
O575     O      0.000000000000     0.038150000000     0.729520000000     0          
Zr576    Zr     0.500000000000     0.576810000000     0.281660000000     0          
O577     O      0.500000000000     0.538340000000     0.333410000000     0          
O578     O      0.500000000000     0.538150000000     0.229520000000     0          
Zr579    Zr     0.000000000000     0.923190000000     0.781660000000     0          
O580     O      0.000000000000     0.961660000000     0.833410000000     0          
O581     O      0.000000000000     0.961850000000     0.729520000000     0          
Zr582    Zr     0.500000000000     0.423190000000     0.281660000000     0          
O583     O      0.500000000000     0.461660000000     0.333410000000     0          
O584     O      0.500000000000     0.461850000000     0.229520000000     0          
Zr585    Zr     0.084100000000     0.000000000000     0.165920000000     0          
Zr586    Zr     0.083960000000     0.000000000000     0.270000000000     0          
O587     O      0.186800000000     0.000000000000     0.251990000000     0          
O588     O      0.185800000000     0.000000000000     0.183610000000     0          
O589     O      0.055400000000     0.000000000000     0.333730000000     0          
O590     O      0.054600000000     0.000000000000     0.102740000000     0          
C591     C      0.212900000000     0.000000000000     0.217400000000     0          
C592     C      0.283700000000     0.000000000000     0.216400000000     0          
C593     C      0.320600000000     0.000000000000     0.249700000000     0          
H594     H      0.298000000000     0.000000000000     0.274400000000     0          
C595     C      0.385900000000     0.000000000000     0.252800000000     0          
H596     H      0.408500000000     0.000000000000     0.277400000000     0          
C597     C      0.414000000000     0.000000000000     0.217200000000     0          
C598     C      0.380400000000     0.000000000000     0.185000000000     0          
H599     H      0.403000000000     0.000000000000     0.160400000000     0          
C600     C      0.318600000000     0.000000000000     0.183300000000     0          
H601     H      0.297900000000     0.000000000000     0.158000000000     0          
C602     C      0.055400000000     0.000000000000     0.414400000000     0          
H603     H      0.094400000000     0.000000000000     0.399800000000     0          
C604     C      0.057000000000     0.000000000000     0.457400000000     0          
H605     H      0.096900000000     0.000000000000     0.471100000000     0          
C606     C      0.056800000000     0.000000000000     0.020100000000     0          
H607     H      0.096300000000     0.000000000000     0.034300000000     0          
Zr608    Zr     0.584100000000     0.500000000000     0.665920000000     0          
Zr609    Zr     0.583960000000     0.500000000000     0.770000000000     0          
O610     O      0.686800000000     0.500000000000     0.751990000000     0          
O611     O      0.685800000000     0.500000000000     0.683610000000     0          
O612     O      0.555400000000     0.500000000000     0.833730000000     0          
O613     O      0.554600000000     0.500000000000     0.602740000000     0          
C614     C      0.712900000000     0.500000000000     0.717400000000     0          
C615     C      0.783700000000     0.500000000000     0.716400000000     0          
C616     C      0.820600000000     0.500000000000     0.749700000000     0          
H617     H      0.798000000000     0.500000000000     0.774400000000     0          
C618     C      0.885900000000     0.500000000000     0.752800000000     0          
H619     H      0.908500000000     0.500000000000     0.777400000000     0          
C620     C      0.914000000000     0.500000000000     0.717200000000     0          
C621     C      0.880400000000     0.500000000000     0.685000000000     0          
H622     H      0.903000000000     0.500000000000     0.660400000000     0          
C623     C      0.818600000000     0.500000000000     0.683300000000     0          
H624     H      0.797900000000     0.500000000000     0.658000000000     0          
C625     C      0.555400000000     0.500000000000     0.914400000000     0          
H626     H      0.594400000000     0.500000000000     0.899800000000     0          
C627     C      0.557000000000     0.500000000000     0.957400000000     0          
H628     H      0.596900000000     0.500000000000     0.971100000000     0          
C629     C      0.556800000000     0.500000000000     0.520100000000     0          
H630     H      0.596300000000     0.500000000000     0.534300000000     0          
Zr631    Zr     0.915900000000     0.000000000000     0.165920000000     0          
Zr632    Zr     0.916040000000     0.000000000000     0.270000000000     0          
O633     O      0.813200000000     0.000000000000     0.251990000000     0          
O634     O      0.814200000000     0.000000000000     0.183610000000     0          
O635     O      0.944600000000     0.000000000000     0.333730000000     0          
O636     O      0.945400000000     0.000000000000     0.102740000000     0          
C637     C      0.787100000000     0.000000000000     0.217400000000     0          
C638     C      0.716300000000     0.000000000000     0.216400000000     0          
C639     C      0.679400000000     0.000000000000     0.249700000000     0          
H640     H      0.702000000000     0.000000000000     0.274400000000     0          
C641     C      0.614100000000     0.000000000000     0.252800000000     0          
H642     H      0.591500000000     0.000000000000     0.277400000000     0          
C643     C      0.586000000000     0.000000000000     0.217200000000     0          
C644     C      0.619600000000     0.000000000000     0.185000000000     0          
H645     H      0.597000000000     0.000000000000     0.160400000000     0          
C646     C      0.681400000000     0.000000000000     0.183300000000     0          
H647     H      0.702100000000     0.000000000000     0.158000000000     0          
C648     C      0.944600000000     0.000000000000     0.414400000000     0          
H649     H      0.905600000000     0.000000000000     0.399800000000     0          
C650     C      0.943000000000     0.000000000000     0.457400000000     0          
H651     H      0.903100000000     0.000000000000     0.471100000000     0          
C652     C      0.943200000000     0.000000000000     0.020100000000     0          
H653     H      0.903700000000     0.000000000000     0.034300000000     0          
Zr654    Zr     0.415900000000     0.500000000000     0.665920000000     0          
Zr655    Zr     0.416040000000     0.500000000000     0.770000000000     0          
O656     O      0.313200000000     0.500000000000     0.751990000000     0          
O657     O      0.314200000000     0.500000000000     0.683610000000     0          
O658     O      0.444600000000     0.500000000000     0.833730000000     0          
O659     O      0.445400000000     0.500000000000     0.602740000000     0          
C660     C      0.287100000000     0.500000000000     0.717400000000     0          
C661     C      0.216300000000     0.500000000000     0.716400000000     0          
C662     C      0.179400000000     0.500000000000     0.749700000000     0          
H663     H      0.202000000000     0.500000000000     0.774400000000     0          
C664     C      0.114100000000     0.500000000000     0.752800000000     0          
H665     H      0.091500000000     0.500000000000     0.777400000000     0          
C666     C      0.086000000000     0.500000000000     0.717200000000     0          
C667     C      0.119600000000     0.500000000000     0.685000000000     0          
H668     H      0.097000000000     0.500000000000     0.660400000000     0          
C669     C      0.181400000000     0.500000000000     0.683300000000     0          
H670     H      0.202100000000     0.500000000000     0.658000000000     0          
C671     C      0.444600000000     0.500000000000     0.914400000000     0          
H672     H      0.405600000000     0.500000000000     0.899800000000     0          
C673     C      0.443000000000     0.500000000000     0.957400000000     0          
H674     H      0.403100000000     0.500000000000     0.971100000000     0          
C675     C      0.443200000000     0.500000000000     0.520100000000     0          
H676     H      0.403700000000     0.500000000000     0.534300000000     0          
Zr677    Zr     0.915900000000     0.000000000000     0.834080000000     0          
Zr678    Zr     0.916040000000     0.000000000000     0.730000000000     0          
O679     O      0.813200000000     0.000000000000     0.748010000000     0          
O680     O      0.814200000000     0.000000000000     0.816390000000     0          
O681     O      0.944600000000     0.000000000000     0.666270000000     0          
O682     O      0.945400000000     0.000000000000     0.897260000000     0          
C683     C      0.787100000000     0.000000000000     0.782600000000     0          
C684     C      0.716300000000     0.000000000000     0.783600000000     0          
C685     C      0.679400000000     0.000000000000     0.750300000000     0          
H686     H      0.702000000000     0.000000000000     0.725600000000     0          
C687     C      0.614100000000     0.000000000000     0.747200000000     0          
H688     H      0.591500000000     0.000000000000     0.722600000000     0          
C689     C      0.586000000000     0.000000000000     0.782800000000     0          
C690     C      0.619600000000     0.000000000000     0.815000000000     0          
H691     H      0.597000000000     0.000000000000     0.839600000000     0          
C692     C      0.681400000000     0.000000000000     0.816700000000     0          
H693     H      0.702100000000     0.000000000000     0.842000000000     0          
C694     C      0.944600000000     0.000000000000     0.585600000000     0          
H695     H      0.905600000000     0.000000000000     0.600200000000     0          
C696     C      0.943000000000     0.000000000000     0.542600000000     0          
H697     H      0.903100000000     0.000000000000     0.528900000000     0          
C698     C      0.943200000000     0.000000000000     0.979900000000     0          
H699     H      0.903700000000     0.000000000000     0.965700000000     0          
Zr700    Zr     0.415900000000     0.500000000000     0.334080000000     0          
Zr701    Zr     0.416040000000     0.500000000000     0.230000000000     0          
O702     O      0.313200000000     0.500000000000     0.248010000000     0          
O703     O      0.314200000000     0.500000000000     0.316390000000     0          
O704     O      0.444600000000     0.500000000000     0.166270000000     0          
O705     O      0.445400000000     0.500000000000     0.397260000000     0          
C706     C      0.287100000000     0.500000000000     0.282600000000     0          
C707     C      0.216300000000     0.500000000000     0.283600000000     0          
C708     C      0.179400000000     0.500000000000     0.250300000000     0          
H709     H      0.202000000000     0.500000000000     0.225600000000     0          
C710     C      0.114100000000     0.500000000000     0.247200000000     0          
H711     H      0.091500000000     0.500000000000     0.222600000000     0          
C712     C      0.086000000000     0.500000000000     0.282800000000     0          
C713     C      0.119600000000     0.500000000000     0.315000000000     0          
H714     H      0.097000000000     0.500000000000     0.339600000000     0          
C715     C      0.181400000000     0.500000000000     0.316700000000     0          
H716     H      0.202100000000     0.500000000000     0.342000000000     0          
C717     C      0.444600000000     0.500000000000     0.085600000000     0          
H718     H      0.405600000000     0.500000000000     0.100200000000     0          
C719     C      0.443000000000     0.500000000000     0.042600000000     0          
H720     H      0.403100000000     0.500000000000     0.028900000000     0          
C721     C      0.443200000000     0.500000000000     0.479900000000     0          
H722     H      0.403700000000     0.500000000000     0.465700000000     0          
Zr723    Zr     0.084100000000     0.000000000000     0.834080000000     0          
Zr724    Zr     0.083960000000     0.000000000000     0.730000000000     0          
O725     O      0.186800000000     0.000000000000     0.748010000000     0          
O726     O      0.185800000000     0.000000000000     0.816390000000     0          
O727     O      0.055400000000     0.000000000000     0.666270000000     0          
O728     O      0.054600000000     0.000000000000     0.897260000000     0          
C729     C      0.212900000000     0.000000000000     0.782600000000     0          
C730     C      0.283700000000     0.000000000000     0.783600000000     0          
C731     C      0.320600000000     0.000000000000     0.750300000000     0          
H732     H      0.298000000000     0.000000000000     0.725600000000     0          
C733     C      0.385900000000     0.000000000000     0.747200000000     0          
H734     H      0.408500000000     0.000000000000     0.722600000000     0          
C735     C      0.414000000000     0.000000000000     0.782800000000     0          
C736     C      0.380400000000     0.000000000000     0.815000000000     0          
H737     H      0.403000000000     0.000000000000     0.839600000000     0          
C738     C      0.318600000000     0.000000000000     0.816700000000     0          
H739     H      0.297900000000     0.000000000000     0.842000000000     0          
C740     C      0.055400000000     0.000000000000     0.585600000000     0          
H741     H      0.094400000000     0.000000000000     0.600200000000     0          
C742     C      0.057000000000     0.000000000000     0.542600000000     0          
H743     H      0.096900000000     0.000000000000     0.528900000000     0          
C744     C      0.056800000000     0.000000000000     0.979900000000     0          
H745     H      0.096300000000     0.000000000000     0.965700000000     0          
Zr746    Zr     0.584100000000     0.500000000000     0.334080000000     0          
Zr747    Zr     0.583960000000     0.500000000000     0.230000000000     0          
O748     O      0.686800000000     0.500000000000     0.248010000000     0          
O749     O      0.685800000000     0.500000000000     0.316390000000     0          
O750     O      0.555400000000     0.500000000000     0.166270000000     0          
O751     O      0.554600000000     0.500000000000     0.397260000000     0          
C752     C      0.712900000000     0.500000000000     0.282600000000     0          
C753     C      0.783700000000     0.500000000000     0.283600000000     0          
C754     C      0.820600000000     0.500000000000     0.250300000000     0          
H755     H      0.798000000000     0.500000000000     0.225600000000     0          
C756     C      0.885900000000     0.500000000000     0.247200000000     0          
H757     H      0.908500000000     0.500000000000     0.222600000000     0          
C758     C      0.914000000000     0.500000000000     0.282800000000     0          
C759     C      0.880400000000     0.500000000000     0.315000000000     0          
H760     H      0.903000000000     0.500000000000     0.339600000000     0          
C761     C      0.818600000000     0.500000000000     0.316700000000     0          
H762     H      0.797900000000     0.500000000000     0.342000000000     0          
C763     C      0.555400000000     0.500000000000     0.085600000000     0          
H764     H      0.594400000000     0.500000000000     0.100200000000     0          
C765     C      0.557000000000     0.500000000000     0.042600000000     0          
H766     H      0.596900000000     0.500000000000     0.028900000000     0          
C767     C      0.556800000000     0.500000000000     0.479900000000     0          
H768     H      0.596300000000     0.500000000000     0.465700000000     0          
N769     N      0.258900000000     0.286600000000     0.500000000000     0          
N770     N      0.758900000000     0.786600000000     0.000000000000     0          
N771     N      0.741100000000     0.713400000000     0.500000000000     0          
N772     N      0.241100000000     0.213400000000     0.000000000000     0          
N773     N      0.741100000000     0.286600000000     0.500000000000     0          
N774     N      0.241100000000     0.786600000000     0.000000000000     0          
N775     N      0.258900000000     0.713400000000     0.500000000000     0          
N776     N      0.758900000000     0.213400000000     0.000000000000     0          
C777     C      0.000000000000     0.000000000000     0.349300000000     0          
C778     C      0.000000000000     0.000000000000     0.395000000000     0          
C779     C      0.000000000000     0.000000000000     0.478700000000     0          
C780     C      0.000000000000     0.000000000000     0.086000000000     0          
C781     C      0.000000000000     0.000000000000     0.040500000000     0          
C782     C      0.500000000000     0.500000000000     0.849300000000     0          
C783     C      0.500000000000     0.500000000000     0.895000000000     0          
C784     C      0.500000000000     0.500000000000     0.978700000000     0          
C785     C      0.500000000000     0.500000000000     0.586000000000     0          
C786     C      0.500000000000     0.500000000000     0.540500000000     0          
C787     C      0.000000000000     0.000000000000     0.650700000000     0          
C788     C      0.000000000000     0.000000000000     0.605000000000     0          
C789     C      0.000000000000     0.000000000000     0.521300000000     0          
C790     C      0.000000000000     0.000000000000     0.914000000000     0          
C791     C      0.000000000000     0.000000000000     0.959500000000     0          
C792     C      0.500000000000     0.500000000000     0.150700000000     0          
C793     C      0.500000000000     0.500000000000     0.105000000000     0          
C794     C      0.500000000000     0.500000000000     0.021300000000     0          
C795     C      0.500000000000     0.500000000000     0.414000000000     0          
C796     C      0.500000000000     0.500000000000     0.459500000000     0          
N797     N      0.500000000000     0.000000000000     0.200700000000     0          
N798     N      0.500000000000     0.000000000000     0.236500000000     0          
N799     N      0.000000000000     0.500000000000     0.700700000000     0          
N800     N      0.000000000000     0.500000000000     0.736500000000     0          
N801     N      0.500000000000     0.000000000000     0.799300000000     0          
N802     N      0.500000000000     0.000000000000     0.763500000000     0          
N803     N      0.000000000000     0.500000000000     0.299300000000     0          
N804     N      0.000000000000     0.500000000000     0.263500000000     0          
H805     H      0.287570000000     0.315410000000     0.496470000000     0          
H806     H      0.712430000000     0.684590000000     0.496470000000     0          
H807     H      0.712430000000     0.315410000000     0.503530000000     0          
H808     H      0.287570000000     0.684590000000     0.503530000000     0          
H809     H      0.787570000000     0.815410000000     0.996470000000     0          
H810     H      0.212430000000     0.815410000000     0.003530000000     0          
H811     H      0.212430000000     0.184590000000     0.996470000000     0          
H812     H      0.787570000000     0.184590000000     0.003530000000     0          


