data_NIHHIY

_audit_creation_method RASPA-1.0
_audit_creation_date 2020-11-2
_audit_author_name 'Rocio Bueno-Perez'

_cell_length_a    19.073
_cell_length_b    32.404
_cell_length_c    34.125
_cell_angle_alpha 90
_cell_angle_beta  90
_cell_angle_gamma 90
_cell_volume      21090.7

_symmetry_cell_setting          orthorhombic
_symmetry_space_group_name_Hall 'P 1'
_symmetry_space_group_name_H-M  'P 1'
_symmetry_Int_Tables_number     1

_symmetry_equiv_pos_as_xyz 'x,y,z'

loop_
_atom_site_label
_atom_site_type_symbol
_atom_site_fract_x
_atom_site_fract_y
_atom_site_fract_z
_atom_site_charge
O3       O      0.931100000000     0.331990000000     0.895910000000     0          
O4       O      0.592400000000     0.207260000000     0.536400000000     0          
O5       O      0.631200000000     0.285210000000     0.556240000000     0          
O7       O      0.572100000000     0.252080000000     0.603870000000     0          
O9       O      0.866800000000     0.369300000000     0.940280000000     0          
C1       C      0.611400000000     0.280900000000     0.590800000000     0          
C2       C      0.881300000000     0.358200000000     0.907000000000     0          
C3       C      0.843500000000     0.377300000000     0.870600000000     0          
C6       C      0.682400000000     0.379900000000     0.634800000000     0          
H2       H      0.702300000000     0.405000000000     0.625800000000     0          
C8       C      0.665100000000     0.348700000000     0.608600000000     0          
H3       H      0.673600000000     0.352800000000     0.581400000000     0          
C9       C      0.775900000000     0.408200000000     0.804500000000     0          
C10      C      0.669800000000     0.373400000000     0.675400000000     0          
C11      C      0.636300000000     0.312400000000     0.620600000000     0          
C12      C      0.689700000000     0.406900000000     0.703300000000     0          
C13      C      0.720400000000     0.395600000000     0.740200000000     0          
H4       H      0.726900000000     0.367100000000     0.745600000000     0          
C14      C      0.860000000000     0.363000000000     0.831600000000     0          
H5       H      0.895700000000     0.342900000000     0.828100000000     0          
C16      C      0.793100000000     0.405900000000     0.875300000000     0          
H6       H      0.780700000000     0.415300000000     0.900700000000     0          
C17      C      0.740900000000     0.423700000000     0.768100000000     0          
C18      C      0.758800000000     0.421800000000     0.842000000000     0          
H7       H      0.723400000000     0.442100000000     0.845200000000     0          
C19      C      0.678500000000     0.448400000000     0.694300000000     0          
H8       H      0.655700000000     0.457000000000     0.671000000000     0          
C20      C      0.704200000000     0.476900000000     0.723000000000     0          
C21      C      0.731400000000     0.464100000000     0.760200000000     0          
C22      C      0.825100000000     0.377800000000     0.800000000000     0          
H9       H      0.834800000000     0.367000000000     0.774700000000     0          
C23      C      0.639400000000     0.337000000000     0.687200000000     0          
H10      H      0.630300000000     0.332200000000     0.714100000000     0          
C24      C      0.621800000000     0.306700000000     0.659000000000     0          
H11      H      0.599500000000     0.282000000000     0.667200000000     0          
Zr1      Zr     0.593580000000     0.153110000000     0.500000000000     0          
Zr2      Zr     0.592100000000     0.261640000000     0.500000000000     0          
O1       O      0.559100000000     0.328000000000     0.500000000000     0          
O8       O      0.703500000000     0.169200000000     0.500000000000     0          
O11      O      0.703500000000     0.245700000000     0.500000000000     0          
C7       C      0.734200000000     0.208100000000     0.500000000000     0          
C25      C      0.962300000000     0.206600000000     0.500000000000     0          
C26      C      0.559900000000     0.455600000000     0.500000000000     0          
H12      H      0.602900000000     0.470300000000     0.500000000000     0          
C27      C      0.563700000000     0.411200000000     0.500000000000     0          
H13      H      0.607100000000     0.396800000000     0.500000000000     0          
C28      C      0.850600000000     0.169900000000     0.500000000000     0          
H14      H      0.825800000000     0.144500000000     0.500000000000     0          
C29      C      0.813800000000     0.208500000000     0.500000000000     0          
C30      C      0.851100000000     0.245300000000     0.500000000000     0          
H15      H      0.827200000000     0.271100000000     0.500000000000     0          
C31      C      0.926900000000     0.243800000000     0.500000000000     0          
H16      H      0.952800000000     0.268900000000     0.500000000000     0          
C32      C      0.923700000000     0.170700000000     0.500000000000     0          
H17      H      0.948200000000     0.145200000000     0.500000000000     0          
Zr3      Zr     0.500000000000     0.208250000000     0.572250000000     0          
O2       O      0.500000000000     0.151400000000     0.534400000000     0          
O10      O      0.500000000000     0.262800000000     0.535500000000     0          
N1       N      0.748500000000     0.500000000000     0.782200000000     0          
H1       H      0.766900000000     0.500000000000     0.805900000000     0          
C4       C      0.500000000000     0.344700000000     0.500000000000     0          
C5       C      0.500000000000     0.478000000000     0.500000000000     0          
C15      C      0.500000000000     0.391000000000     0.500000000000     0          
O3       O      0.068900000000     0.668010000000     0.895910000000     0          
O4       O      0.407600000000     0.792740000000     0.536400000000     0          
O5       O      0.368800000000     0.714790000000     0.556240000000     0          
O7       O      0.427900000000     0.747920000000     0.603870000000     0          
O9       O      0.133200000000     0.630700000000     0.940280000000     0          
C1       C      0.388600000000     0.719100000000     0.590800000000     0          
C2       C      0.118700000000     0.641800000000     0.907000000000     0          
C3       C      0.156500000000     0.622700000000     0.870600000000     0          
C6       C      0.317600000000     0.620100000000     0.634800000000     0          
H2       H      0.297700000000     0.595000000000     0.625800000000     0          
C8       C      0.334900000000     0.651300000000     0.608600000000     0          
H3       H      0.326400000000     0.647200000000     0.581400000000     0          
C9       C      0.224100000000     0.591800000000     0.804500000000     0          
C10      C      0.330200000000     0.626600000000     0.675400000000     0          
C11      C      0.363700000000     0.687600000000     0.620600000000     0          
C12      C      0.310300000000     0.593100000000     0.703300000000     0          
C13      C      0.279600000000     0.604400000000     0.740200000000     0          
H4       H      0.273100000000     0.632900000000     0.745600000000     0          
C14      C      0.140000000000     0.637000000000     0.831600000000     0          
H5       H      0.104300000000     0.657100000000     0.828100000000     0          
C16      C      0.206900000000     0.594100000000     0.875300000000     0          
H6       H      0.219300000000     0.584700000000     0.900700000000     0          
C17      C      0.259100000000     0.576300000000     0.768100000000     0          
C18      C      0.241200000000     0.578200000000     0.842000000000     0          
H7       H      0.276600000000     0.557900000000     0.845200000000     0          
C19      C      0.321500000000     0.551600000000     0.694300000000     0          
H8       H      0.344300000000     0.543000000000     0.671000000000     0          
C20      C      0.295800000000     0.523100000000     0.723000000000     0          
C21      C      0.268600000000     0.535900000000     0.760200000000     0          
C22      C      0.174900000000     0.622200000000     0.800000000000     0          
H9       H      0.165200000000     0.633000000000     0.774700000000     0          
C23      C      0.360600000000     0.663000000000     0.687200000000     0          
H10      H      0.369700000000     0.667800000000     0.714100000000     0          
C24      C      0.378200000000     0.693300000000     0.659000000000     0          
H11      H      0.400500000000     0.718000000000     0.667200000000     0          
Zr1      Zr     0.406420000000     0.846890000000     0.500000000000     0          
Zr2      Zr     0.407900000000     0.738360000000     0.500000000000     0          
O1       O      0.440900000000     0.672000000000     0.500000000000     0          
O8       O      0.296500000000     0.830800000000     0.500000000000     0          
O11      O      0.296500000000     0.754300000000     0.500000000000     0          
C7       C      0.265800000000     0.791900000000     0.500000000000     0          
C25      C      0.037700000000     0.793400000000     0.500000000000     0          
C26      C      0.440100000000     0.544400000000     0.500000000000     0          
H12      H      0.397100000000     0.529700000000     0.500000000000     0          
C27      C      0.436300000000     0.588800000000     0.500000000000     0          
H13      H      0.392900000000     0.603200000000     0.500000000000     0          
C28      C      0.149400000000     0.830100000000     0.500000000000     0          
H14      H      0.174200000000     0.855500000000     0.500000000000     0          
C29      C      0.186200000000     0.791500000000     0.500000000000     0          
C30      C      0.148900000000     0.754700000000     0.500000000000     0          
H15      H      0.172800000000     0.728900000000     0.500000000000     0          
C31      C      0.073100000000     0.756200000000     0.500000000000     0          
H16      H      0.047200000000     0.731100000000     0.500000000000     0          
C32      C      0.076300000000     0.829300000000     0.500000000000     0          
H17      H      0.051800000000     0.854800000000     0.500000000000     0          
Zr3      Zr     0.500000000000     0.791750000000     0.572250000000     0          
O2       O      0.500000000000     0.848600000000     0.534400000000     0          
O10      O      0.500000000000     0.737200000000     0.535500000000     0          
N1       N      0.251500000000     0.500000000000     0.782200000000     0          
H1       H      0.233100000000     0.500000000000     0.805900000000     0          
C4       C      0.500000000000     0.655300000000     0.500000000000     0          
C5       C      0.500000000000     0.522000000000     0.500000000000     0          
C15      C      0.500000000000     0.609000000000     0.500000000000     0          
O3       O      0.931100000000     0.668010000000     0.104090000000     0          
O4       O      0.592400000000     0.792740000000     0.463600000000     0          
O5       O      0.631200000000     0.714790000000     0.443760000000     0          
O7       O      0.572100000000     0.747920000000     0.396130000000     0          
O9       O      0.866800000000     0.630700000000     0.059720000000     0          
C1       C      0.611400000000     0.719100000000     0.409200000000     0          
C2       C      0.881300000000     0.641800000000     0.093000000000     0          
C3       C      0.843500000000     0.622700000000     0.129400000000     0          
C6       C      0.682400000000     0.620100000000     0.365200000000     0          
H2       H      0.702300000000     0.595000000000     0.374200000000     0          
C8       C      0.665100000000     0.651300000000     0.391400000000     0          
H3       H      0.673600000000     0.647200000000     0.418600000000     0          
C9       C      0.775900000000     0.591800000000     0.195500000000     0          
C10      C      0.669800000000     0.626600000000     0.324600000000     0          
C11      C      0.636300000000     0.687600000000     0.379400000000     0          
C12      C      0.689700000000     0.593100000000     0.296700000000     0          
C13      C      0.720400000000     0.604400000000     0.259800000000     0          
H4       H      0.726900000000     0.632900000000     0.254400000000     0          
C14      C      0.860000000000     0.637000000000     0.168400000000     0          
H5       H      0.895700000000     0.657100000000     0.171900000000     0          
C16      C      0.793100000000     0.594100000000     0.124700000000     0          
H6       H      0.780700000000     0.584700000000     0.099300000000     0          
C17      C      0.740900000000     0.576300000000     0.231900000000     0          
C18      C      0.758800000000     0.578200000000     0.158000000000     0          
H7       H      0.723400000000     0.557900000000     0.154800000000     0          
C19      C      0.678500000000     0.551600000000     0.305700000000     0          
H8       H      0.655700000000     0.543000000000     0.329000000000     0          
C20      C      0.704200000000     0.523100000000     0.277000000000     0          
C21      C      0.731400000000     0.535900000000     0.239800000000     0          
C22      C      0.825100000000     0.622200000000     0.200000000000     0          
H9       H      0.834800000000     0.633000000000     0.225300000000     0          
C23      C      0.639400000000     0.663000000000     0.312800000000     0          
H10      H      0.630300000000     0.667800000000     0.285900000000     0          
C24      C      0.621800000000     0.693300000000     0.341000000000     0          
H11      H      0.599500000000     0.718000000000     0.332800000000     0          
Zr1      Zr     0.593580000000     0.846890000000     0.500000000000     0          
Zr2      Zr     0.592100000000     0.738360000000     0.500000000000     0          
O1       O      0.559100000000     0.672000000000     0.500000000000     0          
O8       O      0.703500000000     0.830800000000     0.500000000000     0          
O11      O      0.703500000000     0.754300000000     0.500000000000     0          
C7       C      0.734200000000     0.791900000000     0.500000000000     0          
C25      C      0.962300000000     0.793400000000     0.500000000000     0          
C26      C      0.559900000000     0.544400000000     0.500000000000     0          
H12      H      0.602900000000     0.529700000000     0.500000000000     0          
C27      C      0.563700000000     0.588800000000     0.500000000000     0          
H13      H      0.607100000000     0.603200000000     0.500000000000     0          
C28      C      0.850600000000     0.830100000000     0.500000000000     0          
H14      H      0.825800000000     0.855500000000     0.500000000000     0          
C29      C      0.813800000000     0.791500000000     0.500000000000     0          
C30      C      0.851100000000     0.754700000000     0.500000000000     0          
H15      H      0.827200000000     0.728900000000     0.500000000000     0          
C31      C      0.926900000000     0.756200000000     0.500000000000     0          
H16      H      0.952800000000     0.731100000000     0.500000000000     0          
C32      C      0.923700000000     0.829300000000     0.500000000000     0          
H17      H      0.948200000000     0.854800000000     0.500000000000     0          
Zr3      Zr     0.500000000000     0.791750000000     0.427750000000     0          
O2       O      0.500000000000     0.848600000000     0.465600000000     0          
O10      O      0.500000000000     0.737200000000     0.464500000000     0          
N1       N      0.748500000000     0.500000000000     0.217800000000     0          
H1       H      0.766900000000     0.500000000000     0.194100000000     0          
O3       O      0.068900000000     0.331990000000     0.104090000000     0          
O4       O      0.407600000000     0.207260000000     0.463600000000     0          
O5       O      0.368800000000     0.285210000000     0.443760000000     0          
O7       O      0.427900000000     0.252080000000     0.396130000000     0          
O9       O      0.133200000000     0.369300000000     0.059720000000     0          
C1       C      0.388600000000     0.280900000000     0.409200000000     0          
C2       C      0.118700000000     0.358200000000     0.093000000000     0          
C3       C      0.156500000000     0.377300000000     0.129400000000     0          
C6       C      0.317600000000     0.379900000000     0.365200000000     0          
H2       H      0.297700000000     0.405000000000     0.374200000000     0          
C8       C      0.334900000000     0.348700000000     0.391400000000     0          
H3       H      0.326400000000     0.352800000000     0.418600000000     0          
C9       C      0.224100000000     0.408200000000     0.195500000000     0          
C10      C      0.330200000000     0.373400000000     0.324600000000     0          
C11      C      0.363700000000     0.312400000000     0.379400000000     0          
C12      C      0.310300000000     0.406900000000     0.296700000000     0          
C13      C      0.279600000000     0.395600000000     0.259800000000     0          
H4       H      0.273100000000     0.367100000000     0.254400000000     0          
C14      C      0.140000000000     0.363000000000     0.168400000000     0          
H5       H      0.104300000000     0.342900000000     0.171900000000     0          
C16      C      0.206900000000     0.405900000000     0.124700000000     0          
H6       H      0.219300000000     0.415300000000     0.099300000000     0          
C17      C      0.259100000000     0.423700000000     0.231900000000     0          
C18      C      0.241200000000     0.421800000000     0.158000000000     0          
H7       H      0.276600000000     0.442100000000     0.154800000000     0          
C19      C      0.321500000000     0.448400000000     0.305700000000     0          
H8       H      0.344300000000     0.457000000000     0.329000000000     0          
C20      C      0.295800000000     0.476900000000     0.277000000000     0          
C21      C      0.268600000000     0.464100000000     0.239800000000     0          
C22      C      0.174900000000     0.377800000000     0.200000000000     0          
H9       H      0.165200000000     0.367000000000     0.225300000000     0          
C23      C      0.360600000000     0.337000000000     0.312800000000     0          
H10      H      0.369700000000     0.332200000000     0.285900000000     0          
C24      C      0.378200000000     0.306700000000     0.341000000000     0          
H11      H      0.400500000000     0.282000000000     0.332800000000     0          
Zr1      Zr     0.406420000000     0.153110000000     0.500000000000     0          
Zr2      Zr     0.407900000000     0.261640000000     0.500000000000     0          
O1       O      0.440900000000     0.328000000000     0.500000000000     0          
O8       O      0.296500000000     0.169200000000     0.500000000000     0          
O11      O      0.296500000000     0.245700000000     0.500000000000     0          
C7       C      0.265800000000     0.208100000000     0.500000000000     0          
C25      C      0.037700000000     0.206600000000     0.500000000000     0          
C26      C      0.440100000000     0.455600000000     0.500000000000     0          
H12      H      0.397100000000     0.470300000000     0.500000000000     0          
C27      C      0.436300000000     0.411200000000     0.500000000000     0          
H13      H      0.392900000000     0.396800000000     0.500000000000     0          
C28      C      0.149400000000     0.169900000000     0.500000000000     0          
H14      H      0.174200000000     0.144500000000     0.500000000000     0          
C29      C      0.186200000000     0.208500000000     0.500000000000     0          
C30      C      0.148900000000     0.245300000000     0.500000000000     0          
H15      H      0.172800000000     0.271100000000     0.500000000000     0          
C31      C      0.073100000000     0.243800000000     0.500000000000     0          
H16      H      0.047200000000     0.268900000000     0.500000000000     0          
C32      C      0.076300000000     0.170700000000     0.500000000000     0          
H17      H      0.051800000000     0.145200000000     0.500000000000     0          
Zr3      Zr     0.500000000000     0.208250000000     0.427750000000     0          
O2       O      0.500000000000     0.151400000000     0.465600000000     0          
O10      O      0.500000000000     0.262800000000     0.464500000000     0          
N1       N      0.251500000000     0.500000000000     0.217800000000     0          
H1       H      0.233100000000     0.500000000000     0.194100000000     0          
O3       O      0.068900000000     0.668010000000     0.104090000000     0          
O4       O      0.407600000000     0.792740000000     0.463600000000     0          
O5       O      0.368800000000     0.714790000000     0.443760000000     0          
O7       O      0.427900000000     0.747920000000     0.396130000000     0          
O9       O      0.133200000000     0.630700000000     0.059720000000     0          
C1       C      0.388600000000     0.719100000000     0.409200000000     0          
C2       C      0.118700000000     0.641800000000     0.093000000000     0          
C3       C      0.156500000000     0.622700000000     0.129400000000     0          
C6       C      0.317600000000     0.620100000000     0.365200000000     0          
H2       H      0.297700000000     0.595000000000     0.374200000000     0          
C8       C      0.334900000000     0.651300000000     0.391400000000     0          
H3       H      0.326400000000     0.647200000000     0.418600000000     0          
C9       C      0.224100000000     0.591800000000     0.195500000000     0          
C10      C      0.330200000000     0.626600000000     0.324600000000     0          
C11      C      0.363700000000     0.687600000000     0.379400000000     0          
C12      C      0.310300000000     0.593100000000     0.296700000000     0          
C13      C      0.279600000000     0.604400000000     0.259800000000     0          
H4       H      0.273100000000     0.632900000000     0.254400000000     0          
C14      C      0.140000000000     0.637000000000     0.168400000000     0          
H5       H      0.104300000000     0.657100000000     0.171900000000     0          
C16      C      0.206900000000     0.594100000000     0.124700000000     0          
H6       H      0.219300000000     0.584700000000     0.099300000000     0          
C17      C      0.259100000000     0.576300000000     0.231900000000     0          
C18      C      0.241200000000     0.578200000000     0.158000000000     0          
H7       H      0.276600000000     0.557900000000     0.154800000000     0          
C19      C      0.321500000000     0.551600000000     0.305700000000     0          
H8       H      0.344300000000     0.543000000000     0.329000000000     0          
C20      C      0.295800000000     0.523100000000     0.277000000000     0          
C21      C      0.268600000000     0.535900000000     0.239800000000     0          
C22      C      0.174900000000     0.622200000000     0.200000000000     0          
H9       H      0.165200000000     0.633000000000     0.225300000000     0          
C23      C      0.360600000000     0.663000000000     0.312800000000     0          
H10      H      0.369700000000     0.667800000000     0.285900000000     0          
C24      C      0.378200000000     0.693300000000     0.341000000000     0          
H11      H      0.400500000000     0.718000000000     0.332800000000     0          
O3       O      0.931100000000     0.331990000000     0.104090000000     0          
O4       O      0.592400000000     0.207260000000     0.463600000000     0          
O5       O      0.631200000000     0.285210000000     0.443760000000     0          
O7       O      0.572100000000     0.252080000000     0.396130000000     0          
O9       O      0.866800000000     0.369300000000     0.059720000000     0          
C1       C      0.611400000000     0.280900000000     0.409200000000     0          
C2       C      0.881300000000     0.358200000000     0.093000000000     0          
C3       C      0.843500000000     0.377300000000     0.129400000000     0          
C6       C      0.682400000000     0.379900000000     0.365200000000     0          
H2       H      0.702300000000     0.405000000000     0.374200000000     0          
C8       C      0.665100000000     0.348700000000     0.391400000000     0          
H3       H      0.673600000000     0.352800000000     0.418600000000     0          
C9       C      0.775900000000     0.408200000000     0.195500000000     0          
C10      C      0.669800000000     0.373400000000     0.324600000000     0          
C11      C      0.636300000000     0.312400000000     0.379400000000     0          
C12      C      0.689700000000     0.406900000000     0.296700000000     0          
C13      C      0.720400000000     0.395600000000     0.259800000000     0          
H4       H      0.726900000000     0.367100000000     0.254400000000     0          
C14      C      0.860000000000     0.363000000000     0.168400000000     0          
H5       H      0.895700000000     0.342900000000     0.171900000000     0          
C16      C      0.793100000000     0.405900000000     0.124700000000     0          
H6       H      0.780700000000     0.415300000000     0.099300000000     0          
C17      C      0.740900000000     0.423700000000     0.231900000000     0          
C18      C      0.758800000000     0.421800000000     0.158000000000     0          
H7       H      0.723400000000     0.442100000000     0.154800000000     0          
C19      C      0.678500000000     0.448400000000     0.305700000000     0          
H8       H      0.655700000000     0.457000000000     0.329000000000     0          
C20      C      0.704200000000     0.476900000000     0.277000000000     0          
C21      C      0.731400000000     0.464100000000     0.239800000000     0          
C22      C      0.825100000000     0.377800000000     0.200000000000     0          
H9       H      0.834800000000     0.367000000000     0.225300000000     0          
C23      C      0.639400000000     0.337000000000     0.312800000000     0          
H10      H      0.630300000000     0.332200000000     0.285900000000     0          
C24      C      0.621800000000     0.306700000000     0.341000000000     0          
H11      H      0.599500000000     0.282000000000     0.332800000000     0          
O3       O      0.068900000000     0.331990000000     0.895910000000     0          
O4       O      0.407600000000     0.207260000000     0.536400000000     0          
O5       O      0.368800000000     0.285210000000     0.556240000000     0          
O7       O      0.427900000000     0.252080000000     0.603870000000     0          
O9       O      0.133200000000     0.369300000000     0.940280000000     0          
C1       C      0.388600000000     0.280900000000     0.590800000000     0          
C2       C      0.118700000000     0.358200000000     0.907000000000     0          
C3       C      0.156500000000     0.377300000000     0.870600000000     0          
C6       C      0.317600000000     0.379900000000     0.634800000000     0          
H2       H      0.297700000000     0.405000000000     0.625800000000     0          
C8       C      0.334900000000     0.348700000000     0.608600000000     0          
H3       H      0.326400000000     0.352800000000     0.581400000000     0          
C9       C      0.224100000000     0.408200000000     0.804500000000     0          
C10      C      0.330200000000     0.373400000000     0.675400000000     0          
C11      C      0.363700000000     0.312400000000     0.620600000000     0          
C12      C      0.310300000000     0.406900000000     0.703300000000     0          
C13      C      0.279600000000     0.395600000000     0.740200000000     0          
H4       H      0.273100000000     0.367100000000     0.745600000000     0          
C14      C      0.140000000000     0.363000000000     0.831600000000     0          
H5       H      0.104300000000     0.342900000000     0.828100000000     0          
C16      C      0.206900000000     0.405900000000     0.875300000000     0          
H6       H      0.219300000000     0.415300000000     0.900700000000     0          
C17      C      0.259100000000     0.423700000000     0.768100000000     0          
C18      C      0.241200000000     0.421800000000     0.842000000000     0          
H7       H      0.276600000000     0.442100000000     0.845200000000     0          
C19      C      0.321500000000     0.448400000000     0.694300000000     0          
H8       H      0.344300000000     0.457000000000     0.671000000000     0          
C20      C      0.295800000000     0.476900000000     0.723000000000     0          
C21      C      0.268600000000     0.464100000000     0.760200000000     0          
C22      C      0.174900000000     0.377800000000     0.800000000000     0          
H9       H      0.165200000000     0.367000000000     0.774700000000     0          
C23      C      0.360600000000     0.337000000000     0.687200000000     0          
H10      H      0.369700000000     0.332200000000     0.714100000000     0          
C24      C      0.378200000000     0.306700000000     0.659000000000     0          
H11      H      0.400500000000     0.282000000000     0.667200000000     0          
O3       O      0.931100000000     0.668010000000     0.895910000000     0          
O4       O      0.592400000000     0.792740000000     0.536400000000     0          
O5       O      0.631200000000     0.714790000000     0.556240000000     0          
O7       O      0.572100000000     0.747920000000     0.603870000000     0          
O9       O      0.866800000000     0.630700000000     0.940280000000     0          
C1       C      0.611400000000     0.719100000000     0.590800000000     0          
C2       C      0.881300000000     0.641800000000     0.907000000000     0          
C3       C      0.843500000000     0.622700000000     0.870600000000     0          
C6       C      0.682400000000     0.620100000000     0.634800000000     0          
H2       H      0.702300000000     0.595000000000     0.625800000000     0          
C8       C      0.665100000000     0.651300000000     0.608600000000     0          
H3       H      0.673600000000     0.647200000000     0.581400000000     0          
C9       C      0.775900000000     0.591800000000     0.804500000000     0          
C10      C      0.669800000000     0.626600000000     0.675400000000     0          
C11      C      0.636300000000     0.687600000000     0.620600000000     0          
C12      C      0.689700000000     0.593100000000     0.703300000000     0          
C13      C      0.720400000000     0.604400000000     0.740200000000     0          
H4       H      0.726900000000     0.632900000000     0.745600000000     0          
C14      C      0.860000000000     0.637000000000     0.831600000000     0          
H5       H      0.895700000000     0.657100000000     0.828100000000     0          
C16      C      0.793100000000     0.594100000000     0.875300000000     0          
H6       H      0.780700000000     0.584700000000     0.900700000000     0          
C17      C      0.740900000000     0.576300000000     0.768100000000     0          
C18      C      0.758800000000     0.578200000000     0.842000000000     0          
H7       H      0.723400000000     0.557900000000     0.845200000000     0          
C19      C      0.678500000000     0.551600000000     0.694300000000     0          
H8       H      0.655700000000     0.543000000000     0.671000000000     0          
C20      C      0.704200000000     0.523100000000     0.723000000000     0          
C21      C      0.731400000000     0.535900000000     0.760200000000     0          
C22      C      0.825100000000     0.622200000000     0.800000000000     0          
H9       H      0.834800000000     0.633000000000     0.774700000000     0          
C23      C      0.639400000000     0.663000000000     0.687200000000     0          
H10      H      0.630300000000     0.667800000000     0.714100000000     0          
C24      C      0.621800000000     0.693300000000     0.659000000000     0          
H11      H      0.599500000000     0.718000000000     0.667200000000     0          
O3       O      0.431100000000     0.831990000000     0.395910000000     0          
O4       O      0.092400000000     0.707260000000     0.036400000000     0          
O5       O      0.131200000000     0.785210000000     0.056240000000     0          
O7       O      0.072100000000     0.752080000000     0.103870000000     0          
O9       O      0.366800000000     0.869300000000     0.440280000000     0          
C1       C      0.111400000000     0.780900000000     0.090800000000     0          
C2       C      0.381300000000     0.858200000000     0.407000000000     0          
C3       C      0.343500000000     0.877300000000     0.370600000000     0          
C6       C      0.182400000000     0.879900000000     0.134800000000     0          
H2       H      0.202300000000     0.905000000000     0.125800000000     0          
C8       C      0.165100000000     0.848700000000     0.108600000000     0          
H3       H      0.173600000000     0.852800000000     0.081400000000     0          
C9       C      0.275900000000     0.908200000000     0.304500000000     0          
C10      C      0.169800000000     0.873400000000     0.175400000000     0          
C11      C      0.136300000000     0.812400000000     0.120600000000     0          
C12      C      0.189700000000     0.906900000000     0.203300000000     0          
C13      C      0.220400000000     0.895600000000     0.240200000000     0          
H4       H      0.226900000000     0.867100000000     0.245600000000     0          
C14      C      0.360000000000     0.863000000000     0.331600000000     0          
H5       H      0.395700000000     0.842900000000     0.328100000000     0          
C16      C      0.293100000000     0.905900000000     0.375300000000     0          
H6       H      0.280700000000     0.915300000000     0.400700000000     0          
C17      C      0.240900000000     0.923700000000     0.268100000000     0          
C18      C      0.258800000000     0.921800000000     0.342000000000     0          
H7       H      0.223400000000     0.942100000000     0.345200000000     0          
C19      C      0.178500000000     0.948400000000     0.194300000000     0          
H8       H      0.155700000000     0.957000000000     0.171000000000     0          
C20      C      0.204200000000     0.976900000000     0.223000000000     0          
C21      C      0.231400000000     0.964100000000     0.260200000000     0          
C22      C      0.325100000000     0.877800000000     0.300000000000     0          
H9       H      0.334800000000     0.867000000000     0.274700000000     0          
C23      C      0.139400000000     0.837000000000     0.187200000000     0          
H10      H      0.130300000000     0.832200000000     0.214100000000     0          
C24      C      0.121800000000     0.806700000000     0.159000000000     0          
H11      H      0.099500000000     0.782000000000     0.167200000000     0          
Zr1      Zr     0.093580000000     0.653110000000     0.000000000000     0          
Zr2      Zr     0.092100000000     0.761640000000     0.000000000000     0          
O1       O      0.059100000000     0.828000000000     0.000000000000     0          
O8       O      0.203500000000     0.669200000000     0.000000000000     0          
O11      O      0.203500000000     0.745700000000     0.000000000000     0          
C7       C      0.234200000000     0.708100000000     0.000000000000     0          
C25      C      0.462300000000     0.706600000000     0.000000000000     0          
C26      C      0.059900000000     0.955600000000     0.000000000000     0          
H12      H      0.102900000000     0.970300000000     0.000000000000     0          
C27      C      0.063700000000     0.911200000000     0.000000000000     0          
H13      H      0.107100000000     0.896800000000     0.000000000000     0          
C28      C      0.350600000000     0.669900000000     0.000000000000     0          
H14      H      0.325800000000     0.644500000000     0.000000000000     0          
C29      C      0.313800000000     0.708500000000     0.000000000000     0          
C30      C      0.351100000000     0.745300000000     0.000000000000     0          
H15      H      0.327200000000     0.771100000000     0.000000000000     0          
C31      C      0.426900000000     0.743800000000     0.000000000000     0          
H16      H      0.452800000000     0.768900000000     0.000000000000     0          
C32      C      0.423700000000     0.670700000000     0.000000000000     0          
H17      H      0.448200000000     0.645200000000     0.000000000000     0          
Zr3      Zr     0.000000000000     0.708250000000     0.072250000000     0          
O2       O      0.000000000000     0.651400000000     0.034400000000     0          
O10      O      0.000000000000     0.762800000000     0.035500000000     0          
N1       N      0.248500000000     0.000000000000     0.282200000000     0          
H1       H      0.266900000000     0.000000000000     0.305900000000     0          
C4       C      0.000000000000     0.844700000000     0.000000000000     0          
C5       C      0.000000000000     0.978000000000     0.000000000000     0          
C15      C      0.000000000000     0.891000000000     0.000000000000     0          
O3       O      0.568900000000     0.168010000000     0.395910000000     0          
O4       O      0.907600000000     0.292740000000     0.036400000000     0          
O5       O      0.868800000000     0.214790000000     0.056240000000     0          
O7       O      0.927900000000     0.247920000000     0.103870000000     0          
O9       O      0.633200000000     0.130700000000     0.440280000000     0          
C1       C      0.888600000000     0.219100000000     0.090800000000     0          
C2       C      0.618700000000     0.141800000000     0.407000000000     0          
C3       C      0.656500000000     0.122700000000     0.370600000000     0          
C6       C      0.817600000000     0.120100000000     0.134800000000     0          
H2       H      0.797700000000     0.095000000000     0.125800000000     0          
C8       C      0.834900000000     0.151300000000     0.108600000000     0          
H3       H      0.826400000000     0.147200000000     0.081400000000     0          
C9       C      0.724100000000     0.091800000000     0.304500000000     0          
C10      C      0.830200000000     0.126600000000     0.175400000000     0          
C11      C      0.863700000000     0.187600000000     0.120600000000     0          
C12      C      0.810300000000     0.093100000000     0.203300000000     0          
C13      C      0.779600000000     0.104400000000     0.240200000000     0          
H4       H      0.773100000000     0.132900000000     0.245600000000     0          
C14      C      0.640000000000     0.137000000000     0.331600000000     0          
H5       H      0.604300000000     0.157100000000     0.328100000000     0          
C16      C      0.706900000000     0.094100000000     0.375300000000     0          
H6       H      0.719300000000     0.084700000000     0.400700000000     0          
C17      C      0.759100000000     0.076300000000     0.268100000000     0          
C18      C      0.741200000000     0.078200000000     0.342000000000     0          
H7       H      0.776600000000     0.057900000000     0.345200000000     0          
C19      C      0.821500000000     0.051600000000     0.194300000000     0          
H8       H      0.844300000000     0.043000000000     0.171000000000     0          
C20      C      0.795800000000     0.023100000000     0.223000000000     0          
C21      C      0.768600000000     0.035900000000     0.260200000000     0          
C22      C      0.674900000000     0.122200000000     0.300000000000     0          
H9       H      0.665200000000     0.133000000000     0.274700000000     0          
C23      C      0.860600000000     0.163000000000     0.187200000000     0          
H10      H      0.869700000000     0.167800000000     0.214100000000     0          
C24      C      0.878200000000     0.193300000000     0.159000000000     0          
H11      H      0.900500000000     0.218000000000     0.167200000000     0          
Zr1      Zr     0.906420000000     0.346890000000     0.000000000000     0          
Zr2      Zr     0.907900000000     0.238360000000     0.000000000000     0          
O1       O      0.940900000000     0.172000000000     0.000000000000     0          
O8       O      0.796500000000     0.330800000000     0.000000000000     0          
O11      O      0.796500000000     0.254300000000     0.000000000000     0          
C7       C      0.765800000000     0.291900000000     0.000000000000     0          
C25      C      0.537700000000     0.293400000000     0.000000000000     0          
C26      C      0.940100000000     0.044400000000     0.000000000000     0          
H12      H      0.897100000000     0.029700000000     0.000000000000     0          
C27      C      0.936300000000     0.088800000000     0.000000000000     0          
H13      H      0.892900000000     0.103200000000     0.000000000000     0          
C28      C      0.649400000000     0.330100000000     0.000000000000     0          
H14      H      0.674200000000     0.355500000000     0.000000000000     0          
C29      C      0.686200000000     0.291500000000     0.000000000000     0          
C30      C      0.648900000000     0.254700000000     0.000000000000     0          
H15      H      0.672800000000     0.228900000000     0.000000000000     0          
C31      C      0.573100000000     0.256200000000     0.000000000000     0          
H16      H      0.547200000000     0.231100000000     0.000000000000     0          
C32      C      0.576300000000     0.329300000000     0.000000000000     0          
H17      H      0.551800000000     0.354800000000     0.000000000000     0          
Zr3      Zr     0.000000000000     0.291750000000     0.072250000000     0          
O2       O      0.000000000000     0.348600000000     0.034400000000     0          
O10      O      0.000000000000     0.237200000000     0.035500000000     0          
N1       N      0.751500000000     0.000000000000     0.282200000000     0          
H1       H      0.733100000000     0.000000000000     0.305900000000     0          
C4       C      0.000000000000     0.155300000000     0.000000000000     0          
C5       C      0.000000000000     0.022000000000     0.000000000000     0          
C15      C      0.000000000000     0.109000000000     0.000000000000     0          
O3       O      0.431100000000     0.168010000000     0.604090000000     0          
O4       O      0.092400000000     0.292740000000     0.963600000000     0          
O5       O      0.131200000000     0.214790000000     0.943760000000     0          
O7       O      0.072100000000     0.247920000000     0.896130000000     0          
O9       O      0.366800000000     0.130700000000     0.559720000000     0          
C1       C      0.111400000000     0.219100000000     0.909200000000     0          
C2       C      0.381300000000     0.141800000000     0.593000000000     0          
C3       C      0.343500000000     0.122700000000     0.629400000000     0          
C6       C      0.182400000000     0.120100000000     0.865200000000     0          
H2       H      0.202300000000     0.095000000000     0.874200000000     0          
C8       C      0.165100000000     0.151300000000     0.891400000000     0          
H3       H      0.173600000000     0.147200000000     0.918600000000     0          
C9       C      0.275900000000     0.091800000000     0.695500000000     0          
C10      C      0.169800000000     0.126600000000     0.824600000000     0          
C11      C      0.136300000000     0.187600000000     0.879400000000     0          
C12      C      0.189700000000     0.093100000000     0.796700000000     0          
C13      C      0.220400000000     0.104400000000     0.759800000000     0          
H4       H      0.226900000000     0.132900000000     0.754400000000     0          
C14      C      0.360000000000     0.137000000000     0.668400000000     0          
H5       H      0.395700000000     0.157100000000     0.671900000000     0          
C16      C      0.293100000000     0.094100000000     0.624700000000     0          
H6       H      0.280700000000     0.084700000000     0.599300000000     0          
C17      C      0.240900000000     0.076300000000     0.731900000000     0          
C18      C      0.258800000000     0.078200000000     0.658000000000     0          
H7       H      0.223400000000     0.057900000000     0.654800000000     0          
C19      C      0.178500000000     0.051600000000     0.805700000000     0          
H8       H      0.155700000000     0.043000000000     0.829000000000     0          
C20      C      0.204200000000     0.023100000000     0.777000000000     0          
C21      C      0.231400000000     0.035900000000     0.739800000000     0          
C22      C      0.325100000000     0.122200000000     0.700000000000     0          
H9       H      0.334800000000     0.133000000000     0.725300000000     0          
C23      C      0.139400000000     0.163000000000     0.812800000000     0          
H10      H      0.130300000000     0.167800000000     0.785900000000     0          
C24      C      0.121800000000     0.193300000000     0.841000000000     0          
H11      H      0.099500000000     0.218000000000     0.832800000000     0          
Zr1      Zr     0.093580000000     0.346890000000     0.000000000000     0          
Zr2      Zr     0.092100000000     0.238360000000     0.000000000000     0          
O1       O      0.059100000000     0.172000000000     0.000000000000     0          
O8       O      0.203500000000     0.330800000000     0.000000000000     0          
O11      O      0.203500000000     0.254300000000     0.000000000000     0          
C7       C      0.234200000000     0.291900000000     0.000000000000     0          
C25      C      0.462300000000     0.293400000000     0.000000000000     0          
C26      C      0.059900000000     0.044400000000     0.000000000000     0          
H12      H      0.102900000000     0.029700000000     0.000000000000     0          
C27      C      0.063700000000     0.088800000000     0.000000000000     0          
H13      H      0.107100000000     0.103200000000     0.000000000000     0          
C28      C      0.350600000000     0.330100000000     0.000000000000     0          
H14      H      0.325800000000     0.355500000000     0.000000000000     0          
C29      C      0.313800000000     0.291500000000     0.000000000000     0          
C30      C      0.351100000000     0.254700000000     0.000000000000     0          
H15      H      0.327200000000     0.228900000000     0.000000000000     0          
C31      C      0.426900000000     0.256200000000     0.000000000000     0          
H16      H      0.452800000000     0.231100000000     0.000000000000     0          
C32      C      0.423700000000     0.329300000000     0.000000000000     0          
H17      H      0.448200000000     0.354800000000     0.000000000000     0          
Zr3      Zr     0.000000000000     0.291750000000     0.927750000000     0          
O2       O      0.000000000000     0.348600000000     0.965600000000     0          
O10      O      0.000000000000     0.237200000000     0.964500000000     0          
N1       N      0.248500000000     0.000000000000     0.717800000000     0          
H1       H      0.266900000000     0.000000000000     0.694100000000     0          
O3       O      0.568900000000     0.831990000000     0.604090000000     0          
O4       O      0.907600000000     0.707260000000     0.963600000000     0          
O5       O      0.868800000000     0.785210000000     0.943760000000     0          
O7       O      0.927900000000     0.752080000000     0.896130000000     0          
O9       O      0.633200000000     0.869300000000     0.559720000000     0          
C1       C      0.888600000000     0.780900000000     0.909200000000     0          
C2       C      0.618700000000     0.858200000000     0.593000000000     0          
C3       C      0.656500000000     0.877300000000     0.629400000000     0          
C6       C      0.817600000000     0.879900000000     0.865200000000     0          
H2       H      0.797700000000     0.905000000000     0.874200000000     0          
C8       C      0.834900000000     0.848700000000     0.891400000000     0          
H3       H      0.826400000000     0.852800000000     0.918600000000     0          
C9       C      0.724100000000     0.908200000000     0.695500000000     0          
C10      C      0.830200000000     0.873400000000     0.824600000000     0          
C11      C      0.863700000000     0.812400000000     0.879400000000     0          
C12      C      0.810300000000     0.906900000000     0.796700000000     0          
C13      C      0.779600000000     0.895600000000     0.759800000000     0          
H4       H      0.773100000000     0.867100000000     0.754400000000     0          
C14      C      0.640000000000     0.863000000000     0.668400000000     0          
H5       H      0.604300000000     0.842900000000     0.671900000000     0          
C16      C      0.706900000000     0.905900000000     0.624700000000     0          
H6       H      0.719300000000     0.915300000000     0.599300000000     0          
C17      C      0.759100000000     0.923700000000     0.731900000000     0          
C18      C      0.741200000000     0.921800000000     0.658000000000     0          
H7       H      0.776600000000     0.942100000000     0.654800000000     0          
C19      C      0.821500000000     0.948400000000     0.805700000000     0          
H8       H      0.844300000000     0.957000000000     0.829000000000     0          
C20      C      0.795800000000     0.976900000000     0.777000000000     0          
C21      C      0.768600000000     0.964100000000     0.739800000000     0          
C22      C      0.674900000000     0.877800000000     0.700000000000     0          
H9       H      0.665200000000     0.867000000000     0.725300000000     0          
C23      C      0.860600000000     0.837000000000     0.812800000000     0          
H10      H      0.869700000000     0.832200000000     0.785900000000     0          
C24      C      0.878200000000     0.806700000000     0.841000000000     0          
H11      H      0.900500000000     0.782000000000     0.832800000000     0          
Zr1      Zr     0.906420000000     0.653110000000     0.000000000000     0          
Zr2      Zr     0.907900000000     0.761640000000     0.000000000000     0          
O1       O      0.940900000000     0.828000000000     0.000000000000     0          
O8       O      0.796500000000     0.669200000000     0.000000000000     0          
O11      O      0.796500000000     0.745700000000     0.000000000000     0          
C7       C      0.765800000000     0.708100000000     0.000000000000     0          
C25      C      0.537700000000     0.706600000000     0.000000000000     0          
C26      C      0.940100000000     0.955600000000     0.000000000000     0          
H12      H      0.897100000000     0.970300000000     0.000000000000     0          
C27      C      0.936300000000     0.911200000000     0.000000000000     0          
H13      H      0.892900000000     0.896800000000     0.000000000000     0          
C28      C      0.649400000000     0.669900000000     0.000000000000     0          
H14      H      0.674200000000     0.644500000000     0.000000000000     0          
C29      C      0.686200000000     0.708500000000     0.000000000000     0          
C30      C      0.648900000000     0.745300000000     0.000000000000     0          
H15      H      0.672800000000     0.771100000000     0.000000000000     0          
C31      C      0.573100000000     0.743800000000     0.000000000000     0          
H16      H      0.547200000000     0.768900000000     0.000000000000     0          
C32      C      0.576300000000     0.670700000000     0.000000000000     0          
H17      H      0.551800000000     0.645200000000     0.000000000000     0          
Zr3      Zr     0.000000000000     0.708250000000     0.927750000000     0          
O2       O      0.000000000000     0.651400000000     0.965600000000     0          
O10      O      0.000000000000     0.762800000000     0.964500000000     0          
N1       N      0.751500000000     0.000000000000     0.717800000000     0          
H1       H      0.733100000000     0.000000000000     0.694100000000     0          
O3       O      0.568900000000     0.168010000000     0.604090000000     0          
O4       O      0.907600000000     0.292740000000     0.963600000000     0          
O5       O      0.868800000000     0.214790000000     0.943760000000     0          
O7       O      0.927900000000     0.247920000000     0.896130000000     0          
O9       O      0.633200000000     0.130700000000     0.559720000000     0          
C1       C      0.888600000000     0.219100000000     0.909200000000     0          
C2       C      0.618700000000     0.141800000000     0.593000000000     0          
C3       C      0.656500000000     0.122700000000     0.629400000000     0          
C6       C      0.817600000000     0.120100000000     0.865200000000     0          
H2       H      0.797700000000     0.095000000000     0.874200000000     0          
C8       C      0.834900000000     0.151300000000     0.891400000000     0          
H3       H      0.826400000000     0.147200000000     0.918600000000     0          
C9       C      0.724100000000     0.091800000000     0.695500000000     0          
C10      C      0.830200000000     0.126600000000     0.824600000000     0          
C11      C      0.863700000000     0.187600000000     0.879400000000     0          
C12      C      0.810300000000     0.093100000000     0.796700000000     0          
C13      C      0.779600000000     0.104400000000     0.759800000000     0          
H4       H      0.773100000000     0.132900000000     0.754400000000     0          
C14      C      0.640000000000     0.137000000000     0.668400000000     0          
H5       H      0.604300000000     0.157100000000     0.671900000000     0          
C16      C      0.706900000000     0.094100000000     0.624700000000     0          
H6       H      0.719300000000     0.084700000000     0.599300000000     0          
C17      C      0.759100000000     0.076300000000     0.731900000000     0          
C18      C      0.741200000000     0.078200000000     0.658000000000     0          
H7       H      0.776600000000     0.057900000000     0.654800000000     0          
C19      C      0.821500000000     0.051600000000     0.805700000000     0          
H8       H      0.844300000000     0.043000000000     0.829000000000     0          
C20      C      0.795800000000     0.023100000000     0.777000000000     0          
C21      C      0.768600000000     0.035900000000     0.739800000000     0          
C22      C      0.674900000000     0.122200000000     0.700000000000     0          
H9       H      0.665200000000     0.133000000000     0.725300000000     0          
C23      C      0.860600000000     0.163000000000     0.812800000000     0          
H10      H      0.869700000000     0.167800000000     0.785900000000     0          
C24      C      0.878200000000     0.193300000000     0.841000000000     0          
H11      H      0.900500000000     0.218000000000     0.832800000000     0          
O3       O      0.431100000000     0.831990000000     0.604090000000     0          
O4       O      0.092400000000     0.707260000000     0.963600000000     0          
O5       O      0.131200000000     0.785210000000     0.943760000000     0          
O7       O      0.072100000000     0.752080000000     0.896130000000     0          
O9       O      0.366800000000     0.869300000000     0.559720000000     0          
C1       C      0.111400000000     0.780900000000     0.909200000000     0          
C2       C      0.381300000000     0.858200000000     0.593000000000     0          
C3       C      0.343500000000     0.877300000000     0.629400000000     0          
C6       C      0.182400000000     0.879900000000     0.865200000000     0          
H2       H      0.202300000000     0.905000000000     0.874200000000     0          
C8       C      0.165100000000     0.848700000000     0.891400000000     0          
H3       H      0.173600000000     0.852800000000     0.918600000000     0          
C9       C      0.275900000000     0.908200000000     0.695500000000     0          
C10      C      0.169800000000     0.873400000000     0.824600000000     0          
C11      C      0.136300000000     0.812400000000     0.879400000000     0          
C12      C      0.189700000000     0.906900000000     0.796700000000     0          
C13      C      0.220400000000     0.895600000000     0.759800000000     0          
H4       H      0.226900000000     0.867100000000     0.754400000000     0          
C14      C      0.360000000000     0.863000000000     0.668400000000     0          
H5       H      0.395700000000     0.842900000000     0.671900000000     0          
C16      C      0.293100000000     0.905900000000     0.624700000000     0          
H6       H      0.280700000000     0.915300000000     0.599300000000     0          
C17      C      0.240900000000     0.923700000000     0.731900000000     0          
C18      C      0.258800000000     0.921800000000     0.658000000000     0          
H7       H      0.223400000000     0.942100000000     0.654800000000     0          
C19      C      0.178500000000     0.948400000000     0.805700000000     0          
H8       H      0.155700000000     0.957000000000     0.829000000000     0          
C20      C      0.204200000000     0.976900000000     0.777000000000     0          
C21      C      0.231400000000     0.964100000000     0.739800000000     0          
C22      C      0.325100000000     0.877800000000     0.700000000000     0          
H9       H      0.334800000000     0.867000000000     0.725300000000     0          
C23      C      0.139400000000     0.837000000000     0.812800000000     0          
H10      H      0.130300000000     0.832200000000     0.785900000000     0          
C24      C      0.121800000000     0.806700000000     0.841000000000     0          
H11      H      0.099500000000     0.782000000000     0.832800000000     0          
O3       O      0.568900000000     0.831990000000     0.395910000000     0          
O4       O      0.907600000000     0.707260000000     0.036400000000     0          
O5       O      0.868800000000     0.785210000000     0.056240000000     0          
O7       O      0.927900000000     0.752080000000     0.103870000000     0          
O9       O      0.633200000000     0.869300000000     0.440280000000     0          
C1       C      0.888600000000     0.780900000000     0.090800000000     0          
C2       C      0.618700000000     0.858200000000     0.407000000000     0          
C3       C      0.656500000000     0.877300000000     0.370600000000     0          
C6       C      0.817600000000     0.879900000000     0.134800000000     0          
H2       H      0.797700000000     0.905000000000     0.125800000000     0          
C8       C      0.834900000000     0.848700000000     0.108600000000     0          
H3       H      0.826400000000     0.852800000000     0.081400000000     0          
C9       C      0.724100000000     0.908200000000     0.304500000000     0          
C10      C      0.830200000000     0.873400000000     0.175400000000     0          
C11      C      0.863700000000     0.812400000000     0.120600000000     0          
C12      C      0.810300000000     0.906900000000     0.203300000000     0          
C13      C      0.779600000000     0.895600000000     0.240200000000     0          
H4       H      0.773100000000     0.867100000000     0.245600000000     0          
C14      C      0.640000000000     0.863000000000     0.331600000000     0          
H5       H      0.604300000000     0.842900000000     0.328100000000     0          
C16      C      0.706900000000     0.905900000000     0.375300000000     0          
H6       H      0.719300000000     0.915300000000     0.400700000000     0          
C17      C      0.759100000000     0.923700000000     0.268100000000     0          
C18      C      0.741200000000     0.921800000000     0.342000000000     0          
H7       H      0.776600000000     0.942100000000     0.345200000000     0          
C19      C      0.821500000000     0.948400000000     0.194300000000     0          
H8       H      0.844300000000     0.957000000000     0.171000000000     0          
C20      C      0.795800000000     0.976900000000     0.223000000000     0          
C21      C      0.768600000000     0.964100000000     0.260200000000     0          
C22      C      0.674900000000     0.877800000000     0.300000000000     0          
H9       H      0.665200000000     0.867000000000     0.274700000000     0          
C23      C      0.860600000000     0.837000000000     0.187200000000     0          
H10      H      0.869700000000     0.832200000000     0.214100000000     0          
C24      C      0.878200000000     0.806700000000     0.159000000000     0          
H11      H      0.900500000000     0.782000000000     0.167200000000     0          
O3       O      0.431100000000     0.168010000000     0.395910000000     0          
O4       O      0.092400000000     0.292740000000     0.036400000000     0          
O5       O      0.131200000000     0.214790000000     0.056240000000     0          
O7       O      0.072100000000     0.247920000000     0.103870000000     0          
O9       O      0.366800000000     0.130700000000     0.440280000000     0          
C1       C      0.111400000000     0.219100000000     0.090800000000     0          
C2       C      0.381300000000     0.141800000000     0.407000000000     0          
C3       C      0.343500000000     0.122700000000     0.370600000000     0          
C6       C      0.182400000000     0.120100000000     0.134800000000     0          
H2       H      0.202300000000     0.095000000000     0.125800000000     0          
C8       C      0.165100000000     0.151300000000     0.108600000000     0          
H3       H      0.173600000000     0.147200000000     0.081400000000     0          
C9       C      0.275900000000     0.091800000000     0.304500000000     0          
C10      C      0.169800000000     0.126600000000     0.175400000000     0          
C11      C      0.136300000000     0.187600000000     0.120600000000     0          
C12      C      0.189700000000     0.093100000000     0.203300000000     0          
C13      C      0.220400000000     0.104400000000     0.240200000000     0          
H4       H      0.226900000000     0.132900000000     0.245600000000     0          
C14      C      0.360000000000     0.137000000000     0.331600000000     0          
H5       H      0.395700000000     0.157100000000     0.328100000000     0          
C16      C      0.293100000000     0.094100000000     0.375300000000     0          
H6       H      0.280700000000     0.084700000000     0.400700000000     0          
C17      C      0.240900000000     0.076300000000     0.268100000000     0          
C18      C      0.258800000000     0.078200000000     0.342000000000     0          
H7       H      0.223400000000     0.057900000000     0.345200000000     0          
C19      C      0.178500000000     0.051600000000     0.194300000000     0          
H8       H      0.155700000000     0.043000000000     0.171000000000     0          
C20      C      0.204200000000     0.023100000000     0.223000000000     0          
C21      C      0.231400000000     0.035900000000     0.260200000000     0          
C22      C      0.325100000000     0.122200000000     0.300000000000     0          
H9       H      0.334800000000     0.133000000000     0.274700000000     0          
C23      C      0.139400000000     0.163000000000     0.187200000000     0          
H10      H      0.130300000000     0.167800000000     0.214100000000     0          
C24      C      0.121800000000     0.193300000000     0.159000000000     0          
H11      H      0.099500000000     0.218000000000     0.167200000000     0          


