data_NIHHEU

_audit_creation_method RASPA-1.0
_audit_creation_date 2020-11-2
_audit_author_name 'Rocio Bueno-Perez'

_cell_length_a    21.4248
_cell_length_b    31.7902
_cell_length_c    33.5013
_cell_angle_alpha 90
_cell_angle_beta  90
_cell_angle_gamma 90
_cell_volume      22817.7

_symmetry_cell_setting          orthorhombic
_symmetry_space_group_name_Hall 'P 1'
_symmetry_space_group_name_H-M  'P 1'
_symmetry_Int_Tables_number     1

_symmetry_equiv_pos_as_xyz 'x,y,z'

loop_
_atom_site_label
_atom_site_type_symbol
_atom_site_fract_x
_atom_site_fract_y
_atom_site_fract_z
_atom_site_charge
O1       O      0.118260000000     0.058970000000     0.140490000000     0          
O2       O      0.063430000000     0.112170000000     0.177330000000     0          
O3       O      0.435720000000     0.387840000000     0.239520000000     0          
O4       O      0.381680000000     0.441390000000     0.205930000000     0          
O9       O      0.080480000000     0.039100000000     0.217730000000     0          
C1       C      0.103840000000     0.097760000000     0.149970000000     0          
C2       C      0.138530000000     0.131430000000     0.128170000000     0          
C3       C      0.128200000000     0.173710000000     0.138620000000     0          
H2       H      0.097800000000     0.180900000000     0.158100000000     0          
C4       C      0.162800000000     0.204330000000     0.120070000000     0          
H3       H      0.156900000000     0.233000000000     0.127000000000     0          
C5       C      0.209100000000     0.192930000000     0.089480000000     0          
C6       C      0.213400000000     0.154470000000     0.078630000000     0          
H4       H      0.238800000000     0.147500000000     0.056400000000     0          
C7       C      0.179800000000     0.120710000000     0.099800000000     0          
H5       H      0.187300000000     0.092000000000     0.093500000000     0          
C8       C      0.250800000000     0.226250000000     0.073860000000     0          
C9       C      0.277700000000     0.254320000000     0.100940000000     0          
H6       H      0.271600000000     0.249400000000     0.128600000000     0          
C10      C      0.312800000000     0.289000000000     0.089610000000     0          
C11      C      0.324500000000     0.295780000000     0.049840000000     0          
H7       H      0.350300000000     0.318600000000     0.041700000000     0          
C12      C      0.298600000000     0.269270000000     0.021720000000     0          
C13      C      0.261500000000     0.234490000000     0.033580000000     0          
C14      C      0.335900000000     0.317650000000     0.121230000000     0          
C15      C      0.360000000000     0.302520000000     0.157140000000     0          
H8       H      0.361900000000     0.273000000000     0.161500000000     0          
C16      C      0.381200000000     0.329490000000     0.186400000000     0          
H9       H      0.398600000000     0.318600000000     0.210300000000     0          
C17      C      0.376880000000     0.372850000000     0.180660000000     0          
C18      C      0.354650000000     0.388050000000     0.144690000000     0          
H10      H      0.353000000000     0.417500000000     0.140200000000     0          
C19      C      0.334800000000     0.360760000000     0.115110000000     0          
H11      H      0.320400000000     0.371700000000     0.090400000000     0          
C20      C      0.400300000000     0.402940000000     0.211030000000     0          
Zr1      Zr     0.081740000000     0.000000000000     0.165690000000     0          
Zr3      Zr     0.081550000000     0.000000000000     0.269680000000     0          
O5       O      0.180530000000     0.000000000000     0.183840000000     0          
O6       O      0.181480000000     0.000000000000     0.251420000000     0          
O7       O      0.052110000000     0.000000000000     0.333290000000     0          
O8       O      0.052790000000     0.000000000000     0.102480000000     0          
C21      C      0.207260000000     0.000000000000     0.218200000000     0          
C22      C      0.277180000000     0.000000000000     0.217630000000     0          
C23      C      0.309500000000     0.000000000000     0.251640000000     0          
H12      H      0.288000000000     0.000000000000     0.276400000000     0          
C24      C      0.374700000000     0.000000000000     0.251200000000     0          
H13      H      0.397400000000     0.000000000000     0.275500000000     0          
C25      C      0.405200000000     0.000000000000     0.216200000000     0          
C26      C      0.372600000000     0.000000000000     0.181700000000     0          
H14      H      0.394000000000     0.000000000000     0.156900000000     0          
C27      C      0.307700000000     0.000000000000     0.182600000000     0          
H15      H      0.284800000000     0.000000000000     0.158300000000     0          
C28      C      0.472700000000     0.000000000000     0.216400000000     0          
C31      C      0.054000000000     0.000000000000     0.415440000000     0          
H16      H      0.092500000000     0.000000000000     0.401400000000     0          
C32      C      0.054200000000     0.000000000000     0.456720000000     0          
H17      H      0.093000000000     0.000000000000     0.470500000000     0          
C36      C      0.055540000000     0.000000000000     0.020730000000     0          
H18      H      0.093900000000     0.000000000000     0.034900000000     0          
Zr2      Zr     0.000000000000     0.077960000000     0.218170000000     0          
O10      O      0.000000000000     0.039040000000     0.166840000000     0          
O11      O      0.000000000000     0.038390000000     0.269130000000     0          
N1       N      0.240800000000     0.213510000000     0.000000000000     0          
H1       H      0.218000000000     0.190500000000     0.000000000000     0          
C29      C      0.000000000000     0.000000000000     0.350140000000     0          
C30      C      0.000000000000     0.000000000000     0.394780000000     0          
C33      C      0.000000000000     0.000000000000     0.478100000000     0          
C34      C      0.000000000000     0.000000000000     0.085700000000     0          
C35      C      0.000000000000     0.000000000000     0.041140000000     0          
O1       O      0.881740000000     0.941030000000     0.140490000000     0          
O2       O      0.936570000000     0.887830000000     0.177330000000     0          
O3       O      0.564280000000     0.612160000000     0.239520000000     0          
O4       O      0.618320000000     0.558610000000     0.205930000000     0          
O9       O      0.919520000000     0.960900000000     0.217730000000     0          
C1       C      0.896160000000     0.902240000000     0.149970000000     0          
C2       C      0.861470000000     0.868570000000     0.128170000000     0          
C3       C      0.871800000000     0.826290000000     0.138620000000     0          
H2       H      0.902200000000     0.819100000000     0.158100000000     0          
C4       C      0.837200000000     0.795670000000     0.120070000000     0          
H3       H      0.843100000000     0.767000000000     0.127000000000     0          
C5       C      0.790900000000     0.807070000000     0.089480000000     0          
C6       C      0.786600000000     0.845530000000     0.078630000000     0          
H4       H      0.761200000000     0.852500000000     0.056400000000     0          
C7       C      0.820200000000     0.879290000000     0.099800000000     0          
H5       H      0.812700000000     0.908000000000     0.093500000000     0          
C8       C      0.749200000000     0.773750000000     0.073860000000     0          
C9       C      0.722300000000     0.745680000000     0.100940000000     0          
H6       H      0.728400000000     0.750600000000     0.128600000000     0          
C10      C      0.687200000000     0.711000000000     0.089610000000     0          
C11      C      0.675500000000     0.704220000000     0.049840000000     0          
H7       H      0.649700000000     0.681400000000     0.041700000000     0          
C12      C      0.701400000000     0.730730000000     0.021720000000     0          
C13      C      0.738500000000     0.765510000000     0.033580000000     0          
C14      C      0.664100000000     0.682350000000     0.121230000000     0          
C15      C      0.640000000000     0.697480000000     0.157140000000     0          
H8       H      0.638100000000     0.727000000000     0.161500000000     0          
C16      C      0.618800000000     0.670510000000     0.186400000000     0          
H9       H      0.601400000000     0.681400000000     0.210300000000     0          
C17      C      0.623120000000     0.627150000000     0.180660000000     0          
C18      C      0.645350000000     0.611950000000     0.144690000000     0          
H10      H      0.647000000000     0.582500000000     0.140200000000     0          
C19      C      0.665200000000     0.639240000000     0.115110000000     0          
H11      H      0.679600000000     0.628300000000     0.090400000000     0          
C20      C      0.599700000000     0.597060000000     0.211030000000     0          
Zr1      Zr     0.918260000000     0.000000000000     0.165690000000     0          
Zr3      Zr     0.918450000000     0.000000000000     0.269680000000     0          
O5       O      0.819470000000     0.000000000000     0.183840000000     0          
O6       O      0.818520000000     0.000000000000     0.251420000000     0          
O7       O      0.947890000000     0.000000000000     0.333290000000     0          
O8       O      0.947210000000     0.000000000000     0.102480000000     0          
C21      C      0.792740000000     0.000000000000     0.218200000000     0          
C22      C      0.722820000000     0.000000000000     0.217630000000     0          
C23      C      0.690500000000     0.000000000000     0.251640000000     0          
H12      H      0.712000000000     0.000000000000     0.276400000000     0          
C24      C      0.625300000000     0.000000000000     0.251200000000     0          
H13      H      0.602600000000     0.000000000000     0.275500000000     0          
C25      C      0.594800000000     0.000000000000     0.216200000000     0          
C26      C      0.627400000000     0.000000000000     0.181700000000     0          
H14      H      0.606000000000     0.000000000000     0.156900000000     0          
C27      C      0.692300000000     0.000000000000     0.182600000000     0          
H15      H      0.715200000000     0.000000000000     0.158300000000     0          
C28      C      0.527300000000     0.000000000000     0.216400000000     0          
C31      C      0.946000000000     0.000000000000     0.415440000000     0          
H16      H      0.907500000000     0.000000000000     0.401400000000     0          
C32      C      0.945800000000     0.000000000000     0.456720000000     0          
H17      H      0.907000000000     0.000000000000     0.470500000000     0          
C36      C      0.944460000000     0.000000000000     0.020730000000     0          
H18      H      0.906100000000     0.000000000000     0.034900000000     0          
Zr2      Zr     0.000000000000     0.922040000000     0.218170000000     0          
O10      O      0.000000000000     0.960960000000     0.166840000000     0          
O11      O      0.000000000000     0.961610000000     0.269130000000     0          
N1       N      0.759200000000     0.786490000000     0.000000000000     0          
H1       H      0.782000000000     0.809500000000     0.000000000000     0          
O1       O      0.118260000000     0.941030000000     0.859510000000     0          
O2       O      0.063430000000     0.887830000000     0.822670000000     0          
O3       O      0.435720000000     0.612160000000     0.760480000000     0          
O4       O      0.381680000000     0.558610000000     0.794070000000     0          
O9       O      0.080480000000     0.960900000000     0.782270000000     0          
C1       C      0.103840000000     0.902240000000     0.850030000000     0          
C2       C      0.138530000000     0.868570000000     0.871830000000     0          
C3       C      0.128200000000     0.826290000000     0.861380000000     0          
H2       H      0.097800000000     0.819100000000     0.841900000000     0          
C4       C      0.162800000000     0.795670000000     0.879930000000     0          
H3       H      0.156900000000     0.767000000000     0.873000000000     0          
C5       C      0.209100000000     0.807070000000     0.910520000000     0          
C6       C      0.213400000000     0.845530000000     0.921370000000     0          
H4       H      0.238800000000     0.852500000000     0.943600000000     0          
C7       C      0.179800000000     0.879290000000     0.900200000000     0          
H5       H      0.187300000000     0.908000000000     0.906500000000     0          
C8       C      0.250800000000     0.773750000000     0.926140000000     0          
C9       C      0.277700000000     0.745680000000     0.899060000000     0          
H6       H      0.271600000000     0.750600000000     0.871400000000     0          
C10      C      0.312800000000     0.711000000000     0.910390000000     0          
C11      C      0.324500000000     0.704220000000     0.950160000000     0          
H7       H      0.350300000000     0.681400000000     0.958300000000     0          
C12      C      0.298600000000     0.730730000000     0.978280000000     0          
C13      C      0.261500000000     0.765510000000     0.966420000000     0          
C14      C      0.335900000000     0.682350000000     0.878770000000     0          
C15      C      0.360000000000     0.697480000000     0.842860000000     0          
H8       H      0.361900000000     0.727000000000     0.838500000000     0          
C16      C      0.381200000000     0.670510000000     0.813600000000     0          
H9       H      0.398600000000     0.681400000000     0.789700000000     0          
C17      C      0.376880000000     0.627150000000     0.819340000000     0          
C18      C      0.354650000000     0.611950000000     0.855310000000     0          
H10      H      0.353000000000     0.582500000000     0.859800000000     0          
C19      C      0.334800000000     0.639240000000     0.884890000000     0          
H11      H      0.320400000000     0.628300000000     0.909600000000     0          
C20      C      0.400300000000     0.597060000000     0.788970000000     0          
Zr1      Zr     0.081740000000     0.000000000000     0.834310000000     0          
Zr3      Zr     0.081550000000     0.000000000000     0.730320000000     0          
O5       O      0.180530000000     0.000000000000     0.816160000000     0          
O6       O      0.181480000000     0.000000000000     0.748580000000     0          
O7       O      0.052110000000     0.000000000000     0.666710000000     0          
O8       O      0.052790000000     0.000000000000     0.897520000000     0          
C21      C      0.207260000000     0.000000000000     0.781800000000     0          
C22      C      0.277180000000     0.000000000000     0.782370000000     0          
C23      C      0.309500000000     0.000000000000     0.748360000000     0          
H12      H      0.288000000000     0.000000000000     0.723600000000     0          
C24      C      0.374700000000     0.000000000000     0.748800000000     0          
H13      H      0.397400000000     0.000000000000     0.724500000000     0          
C25      C      0.405200000000     0.000000000000     0.783800000000     0          
C26      C      0.372600000000     0.000000000000     0.818300000000     0          
H14      H      0.394000000000     0.000000000000     0.843100000000     0          
C27      C      0.307700000000     0.000000000000     0.817400000000     0          
H15      H      0.284800000000     0.000000000000     0.841700000000     0          
C28      C      0.472700000000     0.000000000000     0.783600000000     0          
C31      C      0.054000000000     0.000000000000     0.584560000000     0          
H16      H      0.092500000000     0.000000000000     0.598600000000     0          
C32      C      0.054200000000     0.000000000000     0.543280000000     0          
H17      H      0.093000000000     0.000000000000     0.529500000000     0          
C36      C      0.055540000000     0.000000000000     0.979270000000     0          
H18      H      0.093900000000     0.000000000000     0.965100000000     0          
Zr2      Zr     0.000000000000     0.922040000000     0.781830000000     0          
O10      O      0.000000000000     0.960960000000     0.833160000000     0          
O11      O      0.000000000000     0.961610000000     0.730870000000     0          
N1       N      0.240800000000     0.786490000000     0.000000000000     0          
H1       H      0.218000000000     0.809500000000     0.000000000000     0          
C29      C      0.000000000000     0.000000000000     0.649860000000     0          
C30      C      0.000000000000     0.000000000000     0.605220000000     0          
C33      C      0.000000000000     0.000000000000     0.521900000000     0          
C34      C      0.000000000000     0.000000000000     0.914300000000     0          
C35      C      0.000000000000     0.000000000000     0.958860000000     0          
O1       O      0.881740000000     0.058970000000     0.859510000000     0          
O2       O      0.936570000000     0.112170000000     0.822670000000     0          
O3       O      0.564280000000     0.387840000000     0.760480000000     0          
O4       O      0.618320000000     0.441390000000     0.794070000000     0          
O9       O      0.919520000000     0.039100000000     0.782270000000     0          
C1       C      0.896160000000     0.097760000000     0.850030000000     0          
C2       C      0.861470000000     0.131430000000     0.871830000000     0          
C3       C      0.871800000000     0.173710000000     0.861380000000     0          
H2       H      0.902200000000     0.180900000000     0.841900000000     0          
C4       C      0.837200000000     0.204330000000     0.879930000000     0          
H3       H      0.843100000000     0.233000000000     0.873000000000     0          
C5       C      0.790900000000     0.192930000000     0.910520000000     0          
C6       C      0.786600000000     0.154470000000     0.921370000000     0          
H4       H      0.761200000000     0.147500000000     0.943600000000     0          
C7       C      0.820200000000     0.120710000000     0.900200000000     0          
H5       H      0.812700000000     0.092000000000     0.906500000000     0          
C8       C      0.749200000000     0.226250000000     0.926140000000     0          
C9       C      0.722300000000     0.254320000000     0.899060000000     0          
H6       H      0.728400000000     0.249400000000     0.871400000000     0          
C10      C      0.687200000000     0.289000000000     0.910390000000     0          
C11      C      0.675500000000     0.295780000000     0.950160000000     0          
H7       H      0.649700000000     0.318600000000     0.958300000000     0          
C12      C      0.701400000000     0.269270000000     0.978280000000     0          
C13      C      0.738500000000     0.234490000000     0.966420000000     0          
C14      C      0.664100000000     0.317650000000     0.878770000000     0          
C15      C      0.640000000000     0.302520000000     0.842860000000     0          
H8       H      0.638100000000     0.273000000000     0.838500000000     0          
C16      C      0.618800000000     0.329490000000     0.813600000000     0          
H9       H      0.601400000000     0.318600000000     0.789700000000     0          
C17      C      0.623120000000     0.372850000000     0.819340000000     0          
C18      C      0.645350000000     0.388050000000     0.855310000000     0          
H10      H      0.647000000000     0.417500000000     0.859800000000     0          
C19      C      0.665200000000     0.360760000000     0.884890000000     0          
H11      H      0.679600000000     0.371700000000     0.909600000000     0          
C20      C      0.599700000000     0.402940000000     0.788970000000     0          
Zr1      Zr     0.918260000000     0.000000000000     0.834310000000     0          
Zr3      Zr     0.918450000000     0.000000000000     0.730320000000     0          
O5       O      0.819470000000     0.000000000000     0.816160000000     0          
O6       O      0.818520000000     0.000000000000     0.748580000000     0          
O7       O      0.947890000000     0.000000000000     0.666710000000     0          
O8       O      0.947210000000     0.000000000000     0.897520000000     0          
C21      C      0.792740000000     0.000000000000     0.781800000000     0          
C22      C      0.722820000000     0.000000000000     0.782370000000     0          
C23      C      0.690500000000     0.000000000000     0.748360000000     0          
H12      H      0.712000000000     0.000000000000     0.723600000000     0          
C24      C      0.625300000000     0.000000000000     0.748800000000     0          
H13      H      0.602600000000     0.000000000000     0.724500000000     0          
C25      C      0.594800000000     0.000000000000     0.783800000000     0          
C26      C      0.627400000000     0.000000000000     0.818300000000     0          
H14      H      0.606000000000     0.000000000000     0.843100000000     0          
C27      C      0.692300000000     0.000000000000     0.817400000000     0          
H15      H      0.715200000000     0.000000000000     0.841700000000     0          
C28      C      0.527300000000     0.000000000000     0.783600000000     0          
C31      C      0.946000000000     0.000000000000     0.584560000000     0          
H16      H      0.907500000000     0.000000000000     0.598600000000     0          
C32      C      0.945800000000     0.000000000000     0.543280000000     0          
H17      H      0.907000000000     0.000000000000     0.529500000000     0          
C36      C      0.944460000000     0.000000000000     0.979270000000     0          
H18      H      0.906100000000     0.000000000000     0.965100000000     0          
Zr2      Zr     0.000000000000     0.077960000000     0.781830000000     0          
O10      O      0.000000000000     0.039040000000     0.833160000000     0          
O11      O      0.000000000000     0.038390000000     0.730870000000     0          
N1       N      0.759200000000     0.213510000000     0.000000000000     0          
H1       H      0.782000000000     0.190500000000     0.000000000000     0          
O1       O      0.881740000000     0.941030000000     0.859510000000     0          
O2       O      0.936570000000     0.887830000000     0.822670000000     0          
O3       O      0.564280000000     0.612160000000     0.760480000000     0          
O4       O      0.618320000000     0.558610000000     0.794070000000     0          
O9       O      0.919520000000     0.960900000000     0.782270000000     0          
C1       C      0.896160000000     0.902240000000     0.850030000000     0          
C2       C      0.861470000000     0.868570000000     0.871830000000     0          
C3       C      0.871800000000     0.826290000000     0.861380000000     0          
H2       H      0.902200000000     0.819100000000     0.841900000000     0          
C4       C      0.837200000000     0.795670000000     0.879930000000     0          
H3       H      0.843100000000     0.767000000000     0.873000000000     0          
C5       C      0.790900000000     0.807070000000     0.910520000000     0          
C6       C      0.786600000000     0.845530000000     0.921370000000     0          
H4       H      0.761200000000     0.852500000000     0.943600000000     0          
C7       C      0.820200000000     0.879290000000     0.900200000000     0          
H5       H      0.812700000000     0.908000000000     0.906500000000     0          
C8       C      0.749200000000     0.773750000000     0.926140000000     0          
C9       C      0.722300000000     0.745680000000     0.899060000000     0          
H6       H      0.728400000000     0.750600000000     0.871400000000     0          
C10      C      0.687200000000     0.711000000000     0.910390000000     0          
C11      C      0.675500000000     0.704220000000     0.950160000000     0          
H7       H      0.649700000000     0.681400000000     0.958300000000     0          
C12      C      0.701400000000     0.730730000000     0.978280000000     0          
C13      C      0.738500000000     0.765510000000     0.966420000000     0          
C14      C      0.664100000000     0.682350000000     0.878770000000     0          
C15      C      0.640000000000     0.697480000000     0.842860000000     0          
H8       H      0.638100000000     0.727000000000     0.838500000000     0          
C16      C      0.618800000000     0.670510000000     0.813600000000     0          
H9       H      0.601400000000     0.681400000000     0.789700000000     0          
C17      C      0.623120000000     0.627150000000     0.819340000000     0          
C18      C      0.645350000000     0.611950000000     0.855310000000     0          
H10      H      0.647000000000     0.582500000000     0.859800000000     0          
C19      C      0.665200000000     0.639240000000     0.884890000000     0          
H11      H      0.679600000000     0.628300000000     0.909600000000     0          
C20      C      0.599700000000     0.597060000000     0.788970000000     0          
O1       O      0.118260000000     0.058970000000     0.859510000000     0          
O2       O      0.063430000000     0.112170000000     0.822670000000     0          
O3       O      0.435720000000     0.387840000000     0.760480000000     0          
O4       O      0.381680000000     0.441390000000     0.794070000000     0          
O9       O      0.080480000000     0.039100000000     0.782270000000     0          
C1       C      0.103840000000     0.097760000000     0.850030000000     0          
C2       C      0.138530000000     0.131430000000     0.871830000000     0          
C3       C      0.128200000000     0.173710000000     0.861380000000     0          
H2       H      0.097800000000     0.180900000000     0.841900000000     0          
C4       C      0.162800000000     0.204330000000     0.879930000000     0          
H3       H      0.156900000000     0.233000000000     0.873000000000     0          
C5       C      0.209100000000     0.192930000000     0.910520000000     0          
C6       C      0.213400000000     0.154470000000     0.921370000000     0          
H4       H      0.238800000000     0.147500000000     0.943600000000     0          
C7       C      0.179800000000     0.120710000000     0.900200000000     0          
H5       H      0.187300000000     0.092000000000     0.906500000000     0          
C8       C      0.250800000000     0.226250000000     0.926140000000     0          
C9       C      0.277700000000     0.254320000000     0.899060000000     0          
H6       H      0.271600000000     0.249400000000     0.871400000000     0          
C10      C      0.312800000000     0.289000000000     0.910390000000     0          
C11      C      0.324500000000     0.295780000000     0.950160000000     0          
H7       H      0.350300000000     0.318600000000     0.958300000000     0          
C12      C      0.298600000000     0.269270000000     0.978280000000     0          
C13      C      0.261500000000     0.234490000000     0.966420000000     0          
C14      C      0.335900000000     0.317650000000     0.878770000000     0          
C15      C      0.360000000000     0.302520000000     0.842860000000     0          
H8       H      0.361900000000     0.273000000000     0.838500000000     0          
C16      C      0.381200000000     0.329490000000     0.813600000000     0          
H9       H      0.398600000000     0.318600000000     0.789700000000     0          
C17      C      0.376880000000     0.372850000000     0.819340000000     0          
C18      C      0.354650000000     0.388050000000     0.855310000000     0          
H10      H      0.353000000000     0.417500000000     0.859800000000     0          
C19      C      0.334800000000     0.360760000000     0.884890000000     0          
H11      H      0.320400000000     0.371700000000     0.909600000000     0          
C20      C      0.400300000000     0.402940000000     0.788970000000     0          
O1       O      0.881740000000     0.058970000000     0.140490000000     0          
O2       O      0.936570000000     0.112170000000     0.177330000000     0          
O3       O      0.564280000000     0.387840000000     0.239520000000     0          
O4       O      0.618320000000     0.441390000000     0.205930000000     0          
O9       O      0.919520000000     0.039100000000     0.217730000000     0          
C1       C      0.896160000000     0.097760000000     0.149970000000     0          
C2       C      0.861470000000     0.131430000000     0.128170000000     0          
C3       C      0.871800000000     0.173710000000     0.138620000000     0          
H2       H      0.902200000000     0.180900000000     0.158100000000     0          
C4       C      0.837200000000     0.204330000000     0.120070000000     0          
H3       H      0.843100000000     0.233000000000     0.127000000000     0          
C5       C      0.790900000000     0.192930000000     0.089480000000     0          
C6       C      0.786600000000     0.154470000000     0.078630000000     0          
H4       H      0.761200000000     0.147500000000     0.056400000000     0          
C7       C      0.820200000000     0.120710000000     0.099800000000     0          
H5       H      0.812700000000     0.092000000000     0.093500000000     0          
C8       C      0.749200000000     0.226250000000     0.073860000000     0          
C9       C      0.722300000000     0.254320000000     0.100940000000     0          
H6       H      0.728400000000     0.249400000000     0.128600000000     0          
C10      C      0.687200000000     0.289000000000     0.089610000000     0          
C11      C      0.675500000000     0.295780000000     0.049840000000     0          
H7       H      0.649700000000     0.318600000000     0.041700000000     0          
C12      C      0.701400000000     0.269270000000     0.021720000000     0          
C13      C      0.738500000000     0.234490000000     0.033580000000     0          
C14      C      0.664100000000     0.317650000000     0.121230000000     0          
C15      C      0.640000000000     0.302520000000     0.157140000000     0          
H8       H      0.638100000000     0.273000000000     0.161500000000     0          
C16      C      0.618800000000     0.329490000000     0.186400000000     0          
H9       H      0.601400000000     0.318600000000     0.210300000000     0          
C17      C      0.623120000000     0.372850000000     0.180660000000     0          
C18      C      0.645350000000     0.388050000000     0.144690000000     0          
H10      H      0.647000000000     0.417500000000     0.140200000000     0          
C19      C      0.665200000000     0.360760000000     0.115110000000     0          
H11      H      0.679600000000     0.371700000000     0.090400000000     0          
C20      C      0.599700000000     0.402940000000     0.211030000000     0          
O1       O      0.118260000000     0.941030000000     0.140490000000     0          
O2       O      0.063430000000     0.887830000000     0.177330000000     0          
O3       O      0.435720000000     0.612160000000     0.239520000000     0          
O4       O      0.381680000000     0.558610000000     0.205930000000     0          
O9       O      0.080480000000     0.960900000000     0.217730000000     0          
C1       C      0.103840000000     0.902240000000     0.149970000000     0          
C2       C      0.138530000000     0.868570000000     0.128170000000     0          
C3       C      0.128200000000     0.826290000000     0.138620000000     0          
H2       H      0.097800000000     0.819100000000     0.158100000000     0          
C4       C      0.162800000000     0.795670000000     0.120070000000     0          
H3       H      0.156900000000     0.767000000000     0.127000000000     0          
C5       C      0.209100000000     0.807070000000     0.089480000000     0          
C6       C      0.213400000000     0.845530000000     0.078630000000     0          
H4       H      0.238800000000     0.852500000000     0.056400000000     0          
C7       C      0.179800000000     0.879290000000     0.099800000000     0          
H5       H      0.187300000000     0.908000000000     0.093500000000     0          
C8       C      0.250800000000     0.773750000000     0.073860000000     0          
C9       C      0.277700000000     0.745680000000     0.100940000000     0          
H6       H      0.271600000000     0.750600000000     0.128600000000     0          
C10      C      0.312800000000     0.711000000000     0.089610000000     0          
C11      C      0.324500000000     0.704220000000     0.049840000000     0          
H7       H      0.350300000000     0.681400000000     0.041700000000     0          
C12      C      0.298600000000     0.730730000000     0.021720000000     0          
C13      C      0.261500000000     0.765510000000     0.033580000000     0          
C14      C      0.335900000000     0.682350000000     0.121230000000     0          
C15      C      0.360000000000     0.697480000000     0.157140000000     0          
H8       H      0.361900000000     0.727000000000     0.161500000000     0          
C16      C      0.381200000000     0.670510000000     0.186400000000     0          
H9       H      0.398600000000     0.681400000000     0.210300000000     0          
C17      C      0.376880000000     0.627150000000     0.180660000000     0          
C18      C      0.354650000000     0.611950000000     0.144690000000     0          
H10      H      0.353000000000     0.582500000000     0.140200000000     0          
C19      C      0.334800000000     0.639240000000     0.115110000000     0          
H11      H      0.320400000000     0.628300000000     0.090400000000     0          
C20      C      0.400300000000     0.597060000000     0.211030000000     0          
O1       O      0.618260000000     0.558970000000     0.640490000000     0          
O2       O      0.563430000000     0.612170000000     0.677330000000     0          
O3       O      0.935720000000     0.887840000000     0.739520000000     0          
O4       O      0.881680000000     0.941390000000     0.705930000000     0          
O9       O      0.580480000000     0.539100000000     0.717730000000     0          
C1       C      0.603840000000     0.597760000000     0.649970000000     0          
C2       C      0.638530000000     0.631430000000     0.628170000000     0          
C3       C      0.628200000000     0.673710000000     0.638620000000     0          
H2       H      0.597800000000     0.680900000000     0.658100000000     0          
C4       C      0.662800000000     0.704330000000     0.620070000000     0          
H3       H      0.656900000000     0.733000000000     0.627000000000     0          
C5       C      0.709100000000     0.692930000000     0.589480000000     0          
C6       C      0.713400000000     0.654470000000     0.578630000000     0          
H4       H      0.738800000000     0.647500000000     0.556400000000     0          
C7       C      0.679800000000     0.620710000000     0.599800000000     0          
H5       H      0.687300000000     0.592000000000     0.593500000000     0          
C8       C      0.750800000000     0.726250000000     0.573860000000     0          
C9       C      0.777700000000     0.754320000000     0.600940000000     0          
H6       H      0.771600000000     0.749400000000     0.628600000000     0          
C10      C      0.812800000000     0.789000000000     0.589610000000     0          
C11      C      0.824500000000     0.795780000000     0.549840000000     0          
H7       H      0.850300000000     0.818600000000     0.541700000000     0          
C12      C      0.798600000000     0.769270000000     0.521720000000     0          
C13      C      0.761500000000     0.734490000000     0.533580000000     0          
C14      C      0.835900000000     0.817650000000     0.621230000000     0          
C15      C      0.860000000000     0.802520000000     0.657140000000     0          
H8       H      0.861900000000     0.773000000000     0.661500000000     0          
C16      C      0.881200000000     0.829490000000     0.686400000000     0          
H9       H      0.898600000000     0.818600000000     0.710300000000     0          
C17      C      0.876880000000     0.872850000000     0.680660000000     0          
C18      C      0.854650000000     0.888050000000     0.644690000000     0          
H10      H      0.853000000000     0.917500000000     0.640200000000     0          
C19      C      0.834800000000     0.860760000000     0.615110000000     0          
H11      H      0.820400000000     0.871700000000     0.590400000000     0          
C20      C      0.900300000000     0.902940000000     0.711030000000     0          
Zr1      Zr     0.581740000000     0.500000000000     0.665690000000     0          
Zr3      Zr     0.581550000000     0.500000000000     0.769680000000     0          
O5       O      0.680530000000     0.500000000000     0.683840000000     0          
O6       O      0.681480000000     0.500000000000     0.751420000000     0          
O7       O      0.552110000000     0.500000000000     0.833290000000     0          
O8       O      0.552790000000     0.500000000000     0.602480000000     0          
C21      C      0.707260000000     0.500000000000     0.718200000000     0          
C22      C      0.777180000000     0.500000000000     0.717630000000     0          
C23      C      0.809500000000     0.500000000000     0.751640000000     0          
H12      H      0.788000000000     0.500000000000     0.776400000000     0          
C24      C      0.874700000000     0.500000000000     0.751200000000     0          
H13      H      0.897400000000     0.500000000000     0.775500000000     0          
C25      C      0.905200000000     0.500000000000     0.716200000000     0          
C26      C      0.872600000000     0.500000000000     0.681700000000     0          
H14      H      0.894000000000     0.500000000000     0.656900000000     0          
C27      C      0.807700000000     0.500000000000     0.682600000000     0          
H15      H      0.784800000000     0.500000000000     0.658300000000     0          
C28      C      0.972700000000     0.500000000000     0.716400000000     0          
C31      C      0.554000000000     0.500000000000     0.915440000000     0          
H16      H      0.592500000000     0.500000000000     0.901400000000     0          
C32      C      0.554200000000     0.500000000000     0.956720000000     0          
H17      H      0.593000000000     0.500000000000     0.970500000000     0          
C36      C      0.555540000000     0.500000000000     0.520730000000     0          
H18      H      0.593900000000     0.500000000000     0.534900000000     0          
Zr2      Zr     0.500000000000     0.577960000000     0.718170000000     0          
O10      O      0.500000000000     0.539040000000     0.666840000000     0          
O11      O      0.500000000000     0.538390000000     0.769130000000     0          
N1       N      0.740800000000     0.713510000000     0.500000000000     0          
H1       H      0.718000000000     0.690500000000     0.500000000000     0          
C29      C      0.500000000000     0.500000000000     0.850140000000     0          
C30      C      0.500000000000     0.500000000000     0.894780000000     0          
C33      C      0.500000000000     0.500000000000     0.978100000000     0          
C34      C      0.500000000000     0.500000000000     0.585700000000     0          
C35      C      0.500000000000     0.500000000000     0.541140000000     0          
O1       O      0.381740000000     0.441030000000     0.640490000000     0          
O2       O      0.436570000000     0.387830000000     0.677330000000     0          
O3       O      0.064280000000     0.112160000000     0.739520000000     0          
O4       O      0.118320000000     0.058610000000     0.705930000000     0          
O9       O      0.419520000000     0.460900000000     0.717730000000     0          
C1       C      0.396160000000     0.402240000000     0.649970000000     0          
C2       C      0.361470000000     0.368570000000     0.628170000000     0          
C3       C      0.371800000000     0.326290000000     0.638620000000     0          
H2       H      0.402200000000     0.319100000000     0.658100000000     0          
C4       C      0.337200000000     0.295670000000     0.620070000000     0          
H3       H      0.343100000000     0.267000000000     0.627000000000     0          
C5       C      0.290900000000     0.307070000000     0.589480000000     0          
C6       C      0.286600000000     0.345530000000     0.578630000000     0          
H4       H      0.261200000000     0.352500000000     0.556400000000     0          
C7       C      0.320200000000     0.379290000000     0.599800000000     0          
H5       H      0.312700000000     0.408000000000     0.593500000000     0          
C8       C      0.249200000000     0.273750000000     0.573860000000     0          
C9       C      0.222300000000     0.245680000000     0.600940000000     0          
H6       H      0.228400000000     0.250600000000     0.628600000000     0          
C10      C      0.187200000000     0.211000000000     0.589610000000     0          
C11      C      0.175500000000     0.204220000000     0.549840000000     0          
H7       H      0.149700000000     0.181400000000     0.541700000000     0          
C12      C      0.201400000000     0.230730000000     0.521720000000     0          
C13      C      0.238500000000     0.265510000000     0.533580000000     0          
C14      C      0.164100000000     0.182350000000     0.621230000000     0          
C15      C      0.140000000000     0.197480000000     0.657140000000     0          
H8       H      0.138100000000     0.227000000000     0.661500000000     0          
C16      C      0.118800000000     0.170510000000     0.686400000000     0          
H9       H      0.101400000000     0.181400000000     0.710300000000     0          
C17      C      0.123120000000     0.127150000000     0.680660000000     0          
C18      C      0.145350000000     0.111950000000     0.644690000000     0          
H10      H      0.147000000000     0.082500000000     0.640200000000     0          
C19      C      0.165200000000     0.139240000000     0.615110000000     0          
H11      H      0.179600000000     0.128300000000     0.590400000000     0          
C20      C      0.099700000000     0.097060000000     0.711030000000     0          
Zr1      Zr     0.418260000000     0.500000000000     0.665690000000     0          
Zr3      Zr     0.418450000000     0.500000000000     0.769680000000     0          
O5       O      0.319470000000     0.500000000000     0.683840000000     0          
O6       O      0.318520000000     0.500000000000     0.751420000000     0          
O7       O      0.447890000000     0.500000000000     0.833290000000     0          
O8       O      0.447210000000     0.500000000000     0.602480000000     0          
C21      C      0.292740000000     0.500000000000     0.718200000000     0          
C22      C      0.222820000000     0.500000000000     0.717630000000     0          
C23      C      0.190500000000     0.500000000000     0.751640000000     0          
H12      H      0.212000000000     0.500000000000     0.776400000000     0          
C24      C      0.125300000000     0.500000000000     0.751200000000     0          
H13      H      0.102600000000     0.500000000000     0.775500000000     0          
C25      C      0.094800000000     0.500000000000     0.716200000000     0          
C26      C      0.127400000000     0.500000000000     0.681700000000     0          
H14      H      0.106000000000     0.500000000000     0.656900000000     0          
C27      C      0.192300000000     0.500000000000     0.682600000000     0          
H15      H      0.215200000000     0.500000000000     0.658300000000     0          
C28      C      0.027300000000     0.500000000000     0.716400000000     0          
C31      C      0.446000000000     0.500000000000     0.915440000000     0          
H16      H      0.407500000000     0.500000000000     0.901400000000     0          
C32      C      0.445800000000     0.500000000000     0.956720000000     0          
H17      H      0.407000000000     0.500000000000     0.970500000000     0          
C36      C      0.444460000000     0.500000000000     0.520730000000     0          
H18      H      0.406100000000     0.500000000000     0.534900000000     0          
Zr2      Zr     0.500000000000     0.422040000000     0.718170000000     0          
O10      O      0.500000000000     0.460960000000     0.666840000000     0          
O11      O      0.500000000000     0.461610000000     0.769130000000     0          
N1       N      0.259200000000     0.286490000000     0.500000000000     0          
H1       H      0.282000000000     0.309500000000     0.500000000000     0          
O1       O      0.618260000000     0.441030000000     0.359510000000     0          
O2       O      0.563430000000     0.387830000000     0.322670000000     0          
O3       O      0.935720000000     0.112160000000     0.260480000000     0          
O4       O      0.881680000000     0.058610000000     0.294070000000     0          
O9       O      0.580480000000     0.460900000000     0.282270000000     0          
C1       C      0.603840000000     0.402240000000     0.350030000000     0          
C2       C      0.638530000000     0.368570000000     0.371830000000     0          
C3       C      0.628200000000     0.326290000000     0.361380000000     0          
H2       H      0.597800000000     0.319100000000     0.341900000000     0          
C4       C      0.662800000000     0.295670000000     0.379930000000     0          
H3       H      0.656900000000     0.267000000000     0.373000000000     0          
C5       C      0.709100000000     0.307070000000     0.410520000000     0          
C6       C      0.713400000000     0.345530000000     0.421370000000     0          
H4       H      0.738800000000     0.352500000000     0.443600000000     0          
C7       C      0.679800000000     0.379290000000     0.400200000000     0          
H5       H      0.687300000000     0.408000000000     0.406500000000     0          
C8       C      0.750800000000     0.273750000000     0.426140000000     0          
C9       C      0.777700000000     0.245680000000     0.399060000000     0          
H6       H      0.771600000000     0.250600000000     0.371400000000     0          
C10      C      0.812800000000     0.211000000000     0.410390000000     0          
C11      C      0.824500000000     0.204220000000     0.450160000000     0          
H7       H      0.850300000000     0.181400000000     0.458300000000     0          
C12      C      0.798600000000     0.230730000000     0.478280000000     0          
C13      C      0.761500000000     0.265510000000     0.466420000000     0          
C14      C      0.835900000000     0.182350000000     0.378770000000     0          
C15      C      0.860000000000     0.197480000000     0.342860000000     0          
H8       H      0.861900000000     0.227000000000     0.338500000000     0          
C16      C      0.881200000000     0.170510000000     0.313600000000     0          
H9       H      0.898600000000     0.181400000000     0.289700000000     0          
C17      C      0.876880000000     0.127150000000     0.319340000000     0          
C18      C      0.854650000000     0.111950000000     0.355310000000     0          
H10      H      0.853000000000     0.082500000000     0.359800000000     0          
C19      C      0.834800000000     0.139240000000     0.384890000000     0          
H11      H      0.820400000000     0.128300000000     0.409600000000     0          
C20      C      0.900300000000     0.097060000000     0.288970000000     0          
Zr1      Zr     0.581740000000     0.500000000000     0.334310000000     0          
Zr3      Zr     0.581550000000     0.500000000000     0.230320000000     0          
O5       O      0.680530000000     0.500000000000     0.316160000000     0          
O6       O      0.681480000000     0.500000000000     0.248580000000     0          
O7       O      0.552110000000     0.500000000000     0.166710000000     0          
O8       O      0.552790000000     0.500000000000     0.397520000000     0          
C21      C      0.707260000000     0.500000000000     0.281800000000     0          
C22      C      0.777180000000     0.500000000000     0.282370000000     0          
C23      C      0.809500000000     0.500000000000     0.248360000000     0          
H12      H      0.788000000000     0.500000000000     0.223600000000     0          
C24      C      0.874700000000     0.500000000000     0.248800000000     0          
H13      H      0.897400000000     0.500000000000     0.224500000000     0          
C25      C      0.905200000000     0.500000000000     0.283800000000     0          
C26      C      0.872600000000     0.500000000000     0.318300000000     0          
H14      H      0.894000000000     0.500000000000     0.343100000000     0          
C27      C      0.807700000000     0.500000000000     0.317400000000     0          
H15      H      0.784800000000     0.500000000000     0.341700000000     0          
C28      C      0.972700000000     0.500000000000     0.283600000000     0          
C31      C      0.554000000000     0.500000000000     0.084560000000     0          
H16      H      0.592500000000     0.500000000000     0.098600000000     0          
C32      C      0.554200000000     0.500000000000     0.043280000000     0          
H17      H      0.593000000000     0.500000000000     0.029500000000     0          
C36      C      0.555540000000     0.500000000000     0.479270000000     0          
H18      H      0.593900000000     0.500000000000     0.465100000000     0          
Zr2      Zr     0.500000000000     0.422040000000     0.281830000000     0          
O10      O      0.500000000000     0.460960000000     0.333160000000     0          
O11      O      0.500000000000     0.461610000000     0.230870000000     0          
N1       N      0.740800000000     0.286490000000     0.500000000000     0          
H1       H      0.718000000000     0.309500000000     0.500000000000     0          
C29      C      0.500000000000     0.500000000000     0.149860000000     0          
C30      C      0.500000000000     0.500000000000     0.105220000000     0          
C33      C      0.500000000000     0.500000000000     0.021900000000     0          
C34      C      0.500000000000     0.500000000000     0.414300000000     0          
C35      C      0.500000000000     0.500000000000     0.458860000000     0          
O1       O      0.381740000000     0.558970000000     0.359510000000     0          
O2       O      0.436570000000     0.612170000000     0.322670000000     0          
O3       O      0.064280000000     0.887840000000     0.260480000000     0          
O4       O      0.118320000000     0.941390000000     0.294070000000     0          
O9       O      0.419520000000     0.539100000000     0.282270000000     0          
C1       C      0.396160000000     0.597760000000     0.350030000000     0          
C2       C      0.361470000000     0.631430000000     0.371830000000     0          
C3       C      0.371800000000     0.673710000000     0.361380000000     0          
H2       H      0.402200000000     0.680900000000     0.341900000000     0          
C4       C      0.337200000000     0.704330000000     0.379930000000     0          
H3       H      0.343100000000     0.733000000000     0.373000000000     0          
C5       C      0.290900000000     0.692930000000     0.410520000000     0          
C6       C      0.286600000000     0.654470000000     0.421370000000     0          
H4       H      0.261200000000     0.647500000000     0.443600000000     0          
C7       C      0.320200000000     0.620710000000     0.400200000000     0          
H5       H      0.312700000000     0.592000000000     0.406500000000     0          
C8       C      0.249200000000     0.726250000000     0.426140000000     0          
C9       C      0.222300000000     0.754320000000     0.399060000000     0          
H6       H      0.228400000000     0.749400000000     0.371400000000     0          
C10      C      0.187200000000     0.789000000000     0.410390000000     0          
C11      C      0.175500000000     0.795780000000     0.450160000000     0          
H7       H      0.149700000000     0.818600000000     0.458300000000     0          
C12      C      0.201400000000     0.769270000000     0.478280000000     0          
C13      C      0.238500000000     0.734490000000     0.466420000000     0          
C14      C      0.164100000000     0.817650000000     0.378770000000     0          
C15      C      0.140000000000     0.802520000000     0.342860000000     0          
H8       H      0.138100000000     0.773000000000     0.338500000000     0          
C16      C      0.118800000000     0.829490000000     0.313600000000     0          
H9       H      0.101400000000     0.818600000000     0.289700000000     0          
C17      C      0.123120000000     0.872850000000     0.319340000000     0          
C18      C      0.145350000000     0.888050000000     0.355310000000     0          
H10      H      0.147000000000     0.917500000000     0.359800000000     0          
C19      C      0.165200000000     0.860760000000     0.384890000000     0          
H11      H      0.179600000000     0.871700000000     0.409600000000     0          
C20      C      0.099700000000     0.902940000000     0.288970000000     0          
Zr1      Zr     0.418260000000     0.500000000000     0.334310000000     0          
Zr3      Zr     0.418450000000     0.500000000000     0.230320000000     0          
O5       O      0.319470000000     0.500000000000     0.316160000000     0          
O6       O      0.318520000000     0.500000000000     0.248580000000     0          
O7       O      0.447890000000     0.500000000000     0.166710000000     0          
O8       O      0.447210000000     0.500000000000     0.397520000000     0          
C21      C      0.292740000000     0.500000000000     0.281800000000     0          
C22      C      0.222820000000     0.500000000000     0.282370000000     0          
C23      C      0.190500000000     0.500000000000     0.248360000000     0          
H12      H      0.212000000000     0.500000000000     0.223600000000     0          
C24      C      0.125300000000     0.500000000000     0.248800000000     0          
H13      H      0.102600000000     0.500000000000     0.224500000000     0          
C25      C      0.094800000000     0.500000000000     0.283800000000     0          
C26      C      0.127400000000     0.500000000000     0.318300000000     0          
H14      H      0.106000000000     0.500000000000     0.343100000000     0          
C27      C      0.192300000000     0.500000000000     0.317400000000     0          
H15      H      0.215200000000     0.500000000000     0.341700000000     0          
C28      C      0.027300000000     0.500000000000     0.283600000000     0          
C31      C      0.446000000000     0.500000000000     0.084560000000     0          
H16      H      0.407500000000     0.500000000000     0.098600000000     0          
C32      C      0.445800000000     0.500000000000     0.043280000000     0          
H17      H      0.407000000000     0.500000000000     0.029500000000     0          
C36      C      0.444460000000     0.500000000000     0.479270000000     0          
H18      H      0.406100000000     0.500000000000     0.465100000000     0          
Zr2      Zr     0.500000000000     0.577960000000     0.281830000000     0          
O10      O      0.500000000000     0.539040000000     0.333160000000     0          
O11      O      0.500000000000     0.538390000000     0.230870000000     0          
N1       N      0.259200000000     0.713510000000     0.500000000000     0          
H1       H      0.282000000000     0.690500000000     0.500000000000     0          
O1       O      0.381740000000     0.441030000000     0.359510000000     0          
O2       O      0.436570000000     0.387830000000     0.322670000000     0          
O3       O      0.064280000000     0.112160000000     0.260480000000     0          
O4       O      0.118320000000     0.058610000000     0.294070000000     0          
O9       O      0.419520000000     0.460900000000     0.282270000000     0          
C1       C      0.396160000000     0.402240000000     0.350030000000     0          
C2       C      0.361470000000     0.368570000000     0.371830000000     0          
C3       C      0.371800000000     0.326290000000     0.361380000000     0          
H2       H      0.402200000000     0.319100000000     0.341900000000     0          
C4       C      0.337200000000     0.295670000000     0.379930000000     0          
H3       H      0.343100000000     0.267000000000     0.373000000000     0          
C5       C      0.290900000000     0.307070000000     0.410520000000     0          
C6       C      0.286600000000     0.345530000000     0.421370000000     0          
H4       H      0.261200000000     0.352500000000     0.443600000000     0          
C7       C      0.320200000000     0.379290000000     0.400200000000     0          
H5       H      0.312700000000     0.408000000000     0.406500000000     0          
C8       C      0.249200000000     0.273750000000     0.426140000000     0          
C9       C      0.222300000000     0.245680000000     0.399060000000     0          
H6       H      0.228400000000     0.250600000000     0.371400000000     0          
C10      C      0.187200000000     0.211000000000     0.410390000000     0          
C11      C      0.175500000000     0.204220000000     0.450160000000     0          
H7       H      0.149700000000     0.181400000000     0.458300000000     0          
C12      C      0.201400000000     0.230730000000     0.478280000000     0          
C13      C      0.238500000000     0.265510000000     0.466420000000     0          
C14      C      0.164100000000     0.182350000000     0.378770000000     0          
C15      C      0.140000000000     0.197480000000     0.342860000000     0          
H8       H      0.138100000000     0.227000000000     0.338500000000     0          
C16      C      0.118800000000     0.170510000000     0.313600000000     0          
H9       H      0.101400000000     0.181400000000     0.289700000000     0          
C17      C      0.123120000000     0.127150000000     0.319340000000     0          
C18      C      0.145350000000     0.111950000000     0.355310000000     0          
H10      H      0.147000000000     0.082500000000     0.359800000000     0          
C19      C      0.165200000000     0.139240000000     0.384890000000     0          
H11      H      0.179600000000     0.128300000000     0.409600000000     0          
C20      C      0.099700000000     0.097060000000     0.288970000000     0          
O1       O      0.618260000000     0.558970000000     0.359510000000     0          
O2       O      0.563430000000     0.612170000000     0.322670000000     0          
O3       O      0.935720000000     0.887840000000     0.260480000000     0          
O4       O      0.881680000000     0.941390000000     0.294070000000     0          
O9       O      0.580480000000     0.539100000000     0.282270000000     0          
C1       C      0.603840000000     0.597760000000     0.350030000000     0          
C2       C      0.638530000000     0.631430000000     0.371830000000     0          
C3       C      0.628200000000     0.673710000000     0.361380000000     0          
H2       H      0.597800000000     0.680900000000     0.341900000000     0          
C4       C      0.662800000000     0.704330000000     0.379930000000     0          
H3       H      0.656900000000     0.733000000000     0.373000000000     0          
C5       C      0.709100000000     0.692930000000     0.410520000000     0          
C6       C      0.713400000000     0.654470000000     0.421370000000     0          
H4       H      0.738800000000     0.647500000000     0.443600000000     0          
C7       C      0.679800000000     0.620710000000     0.400200000000     0          
H5       H      0.687300000000     0.592000000000     0.406500000000     0          
C8       C      0.750800000000     0.726250000000     0.426140000000     0          
C9       C      0.777700000000     0.754320000000     0.399060000000     0          
H6       H      0.771600000000     0.749400000000     0.371400000000     0          
C10      C      0.812800000000     0.789000000000     0.410390000000     0          
C11      C      0.824500000000     0.795780000000     0.450160000000     0          
H7       H      0.850300000000     0.818600000000     0.458300000000     0          
C12      C      0.798600000000     0.769270000000     0.478280000000     0          
C13      C      0.761500000000     0.734490000000     0.466420000000     0          
C14      C      0.835900000000     0.817650000000     0.378770000000     0          
C15      C      0.860000000000     0.802520000000     0.342860000000     0          
H8       H      0.861900000000     0.773000000000     0.338500000000     0          
C16      C      0.881200000000     0.829490000000     0.313600000000     0          
H9       H      0.898600000000     0.818600000000     0.289700000000     0          
C17      C      0.876880000000     0.872850000000     0.319340000000     0          
C18      C      0.854650000000     0.888050000000     0.355310000000     0          
H10      H      0.853000000000     0.917500000000     0.359800000000     0          
C19      C      0.834800000000     0.860760000000     0.384890000000     0          
H11      H      0.820400000000     0.871700000000     0.409600000000     0          
C20      C      0.900300000000     0.902940000000     0.288970000000     0          
O1       O      0.381740000000     0.558970000000     0.640490000000     0          
O2       O      0.436570000000     0.612170000000     0.677330000000     0          
O3       O      0.064280000000     0.887840000000     0.739520000000     0          
O4       O      0.118320000000     0.941390000000     0.705930000000     0          
O9       O      0.419520000000     0.539100000000     0.717730000000     0          
C1       C      0.396160000000     0.597760000000     0.649970000000     0          
C2       C      0.361470000000     0.631430000000     0.628170000000     0          
C3       C      0.371800000000     0.673710000000     0.638620000000     0          
H2       H      0.402200000000     0.680900000000     0.658100000000     0          
C4       C      0.337200000000     0.704330000000     0.620070000000     0          
H3       H      0.343100000000     0.733000000000     0.627000000000     0          
C5       C      0.290900000000     0.692930000000     0.589480000000     0          
C6       C      0.286600000000     0.654470000000     0.578630000000     0          
H4       H      0.261200000000     0.647500000000     0.556400000000     0          
C7       C      0.320200000000     0.620710000000     0.599800000000     0          
H5       H      0.312700000000     0.592000000000     0.593500000000     0          
C8       C      0.249200000000     0.726250000000     0.573860000000     0          
C9       C      0.222300000000     0.754320000000     0.600940000000     0          
H6       H      0.228400000000     0.749400000000     0.628600000000     0          
C10      C      0.187200000000     0.789000000000     0.589610000000     0          
C11      C      0.175500000000     0.795780000000     0.549840000000     0          
H7       H      0.149700000000     0.818600000000     0.541700000000     0          
C12      C      0.201400000000     0.769270000000     0.521720000000     0          
C13      C      0.238500000000     0.734490000000     0.533580000000     0          
C14      C      0.164100000000     0.817650000000     0.621230000000     0          
C15      C      0.140000000000     0.802520000000     0.657140000000     0          
H8       H      0.138100000000     0.773000000000     0.661500000000     0          
C16      C      0.118800000000     0.829490000000     0.686400000000     0          
H9       H      0.101400000000     0.818600000000     0.710300000000     0          
C17      C      0.123120000000     0.872850000000     0.680660000000     0          
C18      C      0.145350000000     0.888050000000     0.644690000000     0          
H10      H      0.147000000000     0.917500000000     0.640200000000     0          
C19      C      0.165200000000     0.860760000000     0.615110000000     0          
H11      H      0.179600000000     0.871700000000     0.590400000000     0          
C20      C      0.099700000000     0.902940000000     0.711030000000     0          
O1       O      0.618260000000     0.441030000000     0.640490000000     0          
O2       O      0.563430000000     0.387830000000     0.677330000000     0          
O3       O      0.935720000000     0.112160000000     0.739520000000     0          
O4       O      0.881680000000     0.058610000000     0.705930000000     0          
O9       O      0.580480000000     0.460900000000     0.717730000000     0          
C1       C      0.603840000000     0.402240000000     0.649970000000     0          
C2       C      0.638530000000     0.368570000000     0.628170000000     0          
C3       C      0.628200000000     0.326290000000     0.638620000000     0          
H2       H      0.597800000000     0.319100000000     0.658100000000     0          
C4       C      0.662800000000     0.295670000000     0.620070000000     0          
H3       H      0.656900000000     0.267000000000     0.627000000000     0          
C5       C      0.709100000000     0.307070000000     0.589480000000     0          
C6       C      0.713400000000     0.345530000000     0.578630000000     0          
H4       H      0.738800000000     0.352500000000     0.556400000000     0          
C7       C      0.679800000000     0.379290000000     0.599800000000     0          
H5       H      0.687300000000     0.408000000000     0.593500000000     0          
C8       C      0.750800000000     0.273750000000     0.573860000000     0          
C9       C      0.777700000000     0.245680000000     0.600940000000     0          
H6       H      0.771600000000     0.250600000000     0.628600000000     0          
C10      C      0.812800000000     0.211000000000     0.589610000000     0          
C11      C      0.824500000000     0.204220000000     0.549840000000     0          
H7       H      0.850300000000     0.181400000000     0.541700000000     0          
C12      C      0.798600000000     0.230730000000     0.521720000000     0          
C13      C      0.761500000000     0.265510000000     0.533580000000     0          
C14      C      0.835900000000     0.182350000000     0.621230000000     0          
C15      C      0.860000000000     0.197480000000     0.657140000000     0          
H8       H      0.861900000000     0.227000000000     0.661500000000     0          
C16      C      0.881200000000     0.170510000000     0.686400000000     0          
H9       H      0.898600000000     0.181400000000     0.710300000000     0          
C17      C      0.876880000000     0.127150000000     0.680660000000     0          
C18      C      0.854650000000     0.111950000000     0.644690000000     0          
H10      H      0.853000000000     0.082500000000     0.640200000000     0          
C19      C      0.834800000000     0.139240000000     0.615110000000     0          
H11      H      0.820400000000     0.128300000000     0.590400000000     0          
C20      C      0.900300000000     0.097060000000     0.711030000000     0          


