data_NIHHAQ

_audit_creation_method RASPA-1.0
_audit_creation_date 2020-11-2
_audit_author_name 'Rocio Bueno-Perez'

_cell_length_a    23.215
_cell_length_b    30.6351
_cell_length_c    33.548
_cell_angle_alpha 90
_cell_angle_beta  90
_cell_angle_gamma 90
_cell_volume      23859.1

_symmetry_cell_setting          triclinic
_symmetry_space_group_name_Hall 'P 1'
_symmetry_space_group_name_H-M  'P 1'
_symmetry_Int_Tables_number     1

_symmetry_equiv_pos_as_xyz 'x,y,z'

loop_
_atom_site_label
_atom_site_type_symbol
_atom_site_fract_x
_atom_site_fract_y
_atom_site_fract_z
_atom_site_charge
O1       O      0.073900000000     0.041200000000     0.282020000000     0          
O2       O      0.109400000000     0.059660000000     0.360010000000     0          
O3       O      0.389300000000     0.440100000000     0.293590000000     0          
O4       O      0.439300000000     0.384300000000     0.260000000000     0          
O5       O      0.061200000000     0.115700000000     0.323400000000     0          
C6       C      0.405300000000     0.402300000000     0.288500000000     0          
C7       C      0.101100000000     0.097300000000     0.352800000000     0          
C8       C      0.385300000000     0.324600000000     0.313100000000     0          
H9       H      0.403100000000     0.312600000000     0.290100000000     0          
C10      C      0.323300000000     0.294300000000     0.450300000000     0          
H11      H      0.351600000000     0.314600000000     0.458900000000     0          
C12      C      0.274900000000     0.254200000000     0.398800000000     0          
H13      H      0.272300000000     0.247300000000     0.371300000000     0          
C14      C      0.365400000000     0.386200000000     0.356600000000     0          
H15      H      0.368400000000     0.416800000000     0.360900000000     0          
C16      C      0.291500000000     0.268600000000     0.478000000000     0          
C17      C      0.162800000000     0.123300000000     0.402700000000     0          
H18      H      0.164000000000     0.093600000000     0.410700000000     0          
C19      C      0.383800000000     0.369000000000     0.319600000000     0          
C20      C      0.166500000000     0.207200000000     0.379100000000     0          
C21      C      0.359000000000     0.297500000000     0.342400000000     0          
H22      H      0.357000000000     0.267000000000     0.337700000000     0          
C23      C      0.310900000000     0.288500000000     0.409800000000     0          
C24      C      0.197100000000     0.155400000000     0.425500000000     0          
H25      H      0.216000000000     0.146600000000     0.449400000000     0          
C26      C      0.131800000000     0.133600000000     0.372800000000     0          
C27      C      0.201800000000     0.196100000000     0.413000000000     0          
C28      C      0.124800000000     0.177500000000     0.359500000000     0          
H29      H      0.097000000000     0.186500000000     0.340400000000     0          
C30      C      0.343400000000     0.360600000000     0.386800000000     0          
H31      H      0.333900000000     0.372700000000     0.412000000000     0          
C32      C      0.242400000000     0.229400000000     0.425400000000     0          
C33      C      0.335100000000     0.314800000000     0.379000000000     0          
C34      C      0.254200000000     0.236000000000     0.466700000000     0          
C35      C      0.469760000000     0.964090000000     0.302800000000     0          
O36      O      0.573900000000     0.541200000000     0.782020000000     0          
O37      O      0.609400000000     0.559660000000     0.860010000000     0          
O38      O      0.889300000000     0.940100000000     0.793590000000     0          
O39      O      0.939300000000     0.884300000000     0.760000000000     0          
O40      O      0.561200000000     0.615700000000     0.823400000000     0          
C41      C      0.905300000000     0.902300000000     0.788500000000     0          
C42      C      0.601100000000     0.597300000000     0.852800000000     0          
C43      C      0.885300000000     0.824600000000     0.813100000000     0          
H44      H      0.903100000000     0.812600000000     0.790100000000     0          
C45      C      0.823300000000     0.794300000000     0.950300000000     0          
H46      H      0.851600000000     0.814600000000     0.958900000000     0          
C47      C      0.774900000000     0.754200000000     0.898800000000     0          
H48      H      0.772300000000     0.747300000000     0.871300000000     0          
C49      C      0.865400000000     0.886200000000     0.856600000000     0          
H50      H      0.868400000000     0.916800000000     0.860900000000     0          
C51      C      0.791500000000     0.768600000000     0.978000000000     0          
C52      C      0.662800000000     0.623300000000     0.902700000000     0          
H53      H      0.664000000000     0.593600000000     0.910700000000     0          
C54      C      0.883800000000     0.869000000000     0.819600000000     0          
C55      C      0.666500000000     0.707200000000     0.879100000000     0          
C56      C      0.859000000000     0.797500000000     0.842400000000     0          
H57      H      0.857000000000     0.767000000000     0.837700000000     0          
C58      C      0.810900000000     0.788500000000     0.909800000000     0          
C59      C      0.697100000000     0.655400000000     0.925500000000     0          
H60      H      0.716000000000     0.646600000000     0.949400000000     0          
C61      C      0.631800000000     0.633600000000     0.872800000000     0          
C62      C      0.701800000000     0.696100000000     0.913000000000     0          
C63      C      0.624800000000     0.677500000000     0.859500000000     0          
H64      H      0.597000000000     0.686500000000     0.840400000000     0          
C65      C      0.843400000000     0.860600000000     0.886800000000     0          
H66      H      0.833900000000     0.872700000000     0.912000000000     0          
C67      C      0.742400000000     0.729400000000     0.925400000000     0          
C68      C      0.835100000000     0.814800000000     0.879000000000     0          
C69      C      0.754200000000     0.736000000000     0.966700000000     0          
C70      C      0.969760000000     0.464090000000     0.802800000000     0          
O71      O      0.926100000000     0.958800000000     0.282020000000     0          
O72      O      0.890600000000     0.940340000000     0.360010000000     0          
O73      O      0.610700000000     0.559900000000     0.293590000000     0          
O74      O      0.560700000000     0.615700000000     0.260000000000     0          
O75      O      0.938800000000     0.884300000000     0.323400000000     0          
C76      C      0.594700000000     0.597700000000     0.288500000000     0          
C77      C      0.898900000000     0.902700000000     0.352800000000     0          
C78      C      0.614700000000     0.675400000000     0.313100000000     0          
H79      H      0.596900000000     0.687400000000     0.290100000000     0          
C80      C      0.676700000000     0.705700000000     0.450300000000     0          
H81      H      0.648400000000     0.685400000000     0.458900000000     0          
C82      C      0.725100000000     0.745800000000     0.398800000000     0          
H83      H      0.727700000000     0.752700000000     0.371300000000     0          
C84      C      0.634600000000     0.613800000000     0.356600000000     0          
H85      H      0.631600000000     0.583200000000     0.360900000000     0          
C86      C      0.708500000000     0.731400000000     0.478000000000     0          
C87      C      0.837200000000     0.876700000000     0.402700000000     0          
H88      H      0.836000000000     0.906400000000     0.410700000000     0          
C89      C      0.616200000000     0.631000000000     0.319600000000     0          
C90      C      0.833500000000     0.792800000000     0.379100000000     0          
C91      C      0.641000000000     0.702500000000     0.342400000000     0          
H92      H      0.643000000000     0.733000000000     0.337700000000     0          
C93      C      0.689100000000     0.711500000000     0.409800000000     0          
C94      C      0.802900000000     0.844600000000     0.425500000000     0          
H95      H      0.784000000000     0.853400000000     0.449400000000     0          
C96      C      0.868200000000     0.866400000000     0.372800000000     0          
C97      C      0.798200000000     0.803900000000     0.413000000000     0          
C98      C      0.875200000000     0.822500000000     0.359500000000     0          
H99      H      0.903000000000     0.813500000000     0.340400000000     0          
C100     C      0.656600000000     0.639400000000     0.386800000000     0          
H101     H      0.666100000000     0.627300000000     0.412000000000     0          
C102     C      0.757600000000     0.770600000000     0.425400000000     0          
C103     C      0.664900000000     0.685200000000     0.379000000000     0          
C104     C      0.745800000000     0.764000000000     0.466700000000     0          
C105     C      0.530240000000     0.035910000000     0.302800000000     0          
O106     O      0.426100000000     0.458800000000     0.782020000000     0          
O107     O      0.390600000000     0.440340000000     0.860010000000     0          
O108     O      0.110700000000     0.059900000000     0.793590000000     0          
O109     O      0.060700000000     0.115700000000     0.760000000000     0          
O110     O      0.438800000000     0.384300000000     0.823400000000     0          
C111     C      0.094700000000     0.097700000000     0.788500000000     0          
C112     C      0.398900000000     0.402700000000     0.852800000000     0          
C113     C      0.114700000000     0.175400000000     0.813100000000     0          
H114     H      0.096900000000     0.187400000000     0.790100000000     0          
C115     C      0.176700000000     0.205700000000     0.950300000000     0          
H116     H      0.148400000000     0.185400000000     0.958900000000     0          
C117     C      0.225100000000     0.245800000000     0.898800000000     0          
H118     H      0.227700000000     0.252700000000     0.871300000000     0          
C119     C      0.134600000000     0.113800000000     0.856600000000     0          
H120     H      0.131600000000     0.083200000000     0.860900000000     0          
C121     C      0.208500000000     0.231400000000     0.978000000000     0          
C122     C      0.337200000000     0.376700000000     0.902700000000     0          
H123     H      0.336000000000     0.406400000000     0.910700000000     0          
C124     C      0.116200000000     0.131000000000     0.819600000000     0          
C125     C      0.333500000000     0.292800000000     0.879100000000     0          
C126     C      0.141000000000     0.202500000000     0.842400000000     0          
H127     H      0.143000000000     0.233000000000     0.837700000000     0          
C128     C      0.189100000000     0.211500000000     0.909800000000     0          
C129     C      0.302900000000     0.344600000000     0.925500000000     0          
H130     H      0.284000000000     0.353400000000     0.949400000000     0          
C131     C      0.368200000000     0.366400000000     0.872800000000     0          
C132     C      0.298200000000     0.303900000000     0.913000000000     0          
C133     C      0.375200000000     0.322500000000     0.859500000000     0          
H134     H      0.403000000000     0.313500000000     0.840400000000     0          
C135     C      0.156600000000     0.139400000000     0.886800000000     0          
H136     H      0.166100000000     0.127300000000     0.912000000000     0          
C137     C      0.257600000000     0.270600000000     0.925400000000     0          
C138     C      0.164900000000     0.185200000000     0.879000000000     0          
C139     C      0.245800000000     0.264000000000     0.966700000000     0          
C140     C      0.030240000000     0.535910000000     0.802800000000     0          
O141     O      0.926100000000     0.041200000000     0.717980000000     0          
O142     O      0.890600000000     0.059660000000     0.639990000000     0          
O143     O      0.610700000000     0.440100000000     0.706410000000     0          
O144     O      0.560700000000     0.384300000000     0.740000000000     0          
O145     O      0.938800000000     0.115700000000     0.676600000000     0          
C146     C      0.594700000000     0.402300000000     0.711500000000     0          
C147     C      0.898900000000     0.097300000000     0.647200000000     0          
C148     C      0.614700000000     0.324600000000     0.686900000000     0          
H149     H      0.596900000000     0.312600000000     0.709900000000     0          
C150     C      0.676700000000     0.294300000000     0.549700000000     0          
H151     H      0.648400000000     0.314600000000     0.541100000000     0          
C152     C      0.725100000000     0.254200000000     0.601200000000     0          
H153     H      0.727700000000     0.247300000000     0.628700000000     0          
C154     C      0.634600000000     0.386200000000     0.643400000000     0          
H155     H      0.631600000000     0.416800000000     0.639100000000     0          
C156     C      0.708500000000     0.268600000000     0.522000000000     0          
C157     C      0.837200000000     0.123300000000     0.597300000000     0          
H158     H      0.836000000000     0.093600000000     0.589300000000     0          
C159     C      0.616200000000     0.369000000000     0.680400000000     0          
C160     C      0.833500000000     0.207200000000     0.620900000000     0          
C161     C      0.641000000000     0.297500000000     0.657600000000     0          
H162     H      0.643000000000     0.267000000000     0.662300000000     0          
C163     C      0.689100000000     0.288500000000     0.590200000000     0          
C164     C      0.802900000000     0.155400000000     0.574500000000     0          
H165     H      0.784000000000     0.146600000000     0.550600000000     0          
C166     C      0.868200000000     0.133600000000     0.627200000000     0          
C167     C      0.798200000000     0.196100000000     0.587000000000     0          
C168     C      0.875200000000     0.177500000000     0.640500000000     0          
H169     H      0.903000000000     0.186500000000     0.659600000000     0          
C170     C      0.656600000000     0.360600000000     0.613200000000     0          
H171     H      0.666100000000     0.372700000000     0.588000000000     0          
C172     C      0.757600000000     0.229400000000     0.574600000000     0          
C173     C      0.664900000000     0.314800000000     0.621000000000     0          
C174     C      0.745800000000     0.236000000000     0.533300000000     0          
C175     C      0.530240000000     0.964090000000     0.697200000000     0          
O176     O      0.426100000000     0.541200000000     0.217980000000     0          
O177     O      0.390600000000     0.559660000000     0.139990000000     0          
O178     O      0.110700000000     0.940100000000     0.206410000000     0          
O179     O      0.060700000000     0.884300000000     0.240000000000     0          
O180     O      0.438800000000     0.615700000000     0.176600000000     0          
C181     C      0.094700000000     0.902300000000     0.211500000000     0          
C182     C      0.398900000000     0.597300000000     0.147200000000     0          
C183     C      0.114700000000     0.824600000000     0.186900000000     0          
H184     H      0.096900000000     0.812600000000     0.209900000000     0          
C185     C      0.176700000000     0.794300000000     0.049700000000     0          
H186     H      0.148400000000     0.814600000000     0.041100000000     0          
C187     C      0.225100000000     0.754200000000     0.101200000000     0          
H188     H      0.227700000000     0.747300000000     0.128700000000     0          
C189     C      0.134600000000     0.886200000000     0.143400000000     0          
H190     H      0.131600000000     0.916800000000     0.139100000000     0          
C191     C      0.208500000000     0.768600000000     0.022000000000     0          
C192     C      0.337200000000     0.623300000000     0.097300000000     0          
H193     H      0.336000000000     0.593600000000     0.089300000000     0          
C194     C      0.116200000000     0.869000000000     0.180400000000     0          
C195     C      0.333500000000     0.707200000000     0.120900000000     0          
C196     C      0.141000000000     0.797500000000     0.157600000000     0          
H197     H      0.143000000000     0.767000000000     0.162300000000     0          
C198     C      0.189100000000     0.788500000000     0.090200000000     0          
C199     C      0.302900000000     0.655400000000     0.074500000000     0          
H200     H      0.284000000000     0.646600000000     0.050600000000     0          
C201     C      0.368200000000     0.633600000000     0.127200000000     0          
C202     C      0.298200000000     0.696100000000     0.087000000000     0          
C203     C      0.375200000000     0.677500000000     0.140500000000     0          
H204     H      0.403000000000     0.686500000000     0.159600000000     0          
C205     C      0.156600000000     0.860600000000     0.113200000000     0          
H206     H      0.166100000000     0.872700000000     0.088000000000     0          
C207     C      0.257600000000     0.729400000000     0.074600000000     0          
C208     C      0.164900000000     0.814800000000     0.121000000000     0          
C209     C      0.245800000000     0.736000000000     0.033300000000     0          
C210     C      0.030240000000     0.464090000000     0.197200000000     0          
O211     O      0.073900000000     0.958800000000     0.717980000000     0          
O212     O      0.109400000000     0.940340000000     0.639990000000     0          
O213     O      0.389300000000     0.559900000000     0.706410000000     0          
O214     O      0.439300000000     0.615700000000     0.740000000000     0          
O215     O      0.061200000000     0.884300000000     0.676600000000     0          
C216     C      0.405300000000     0.597700000000     0.711500000000     0          
C217     C      0.101100000000     0.902700000000     0.647200000000     0          
C218     C      0.385300000000     0.675400000000     0.686900000000     0          
H219     H      0.403100000000     0.687400000000     0.709900000000     0          
C220     C      0.323300000000     0.705700000000     0.549700000000     0          
H221     H      0.351600000000     0.685400000000     0.541100000000     0          
C222     C      0.274900000000     0.745800000000     0.601200000000     0          
H223     H      0.272300000000     0.752700000000     0.628700000000     0          
C224     C      0.365400000000     0.613800000000     0.643400000000     0          
H225     H      0.368400000000     0.583200000000     0.639100000000     0          
C226     C      0.291500000000     0.731400000000     0.522000000000     0          
C227     C      0.162800000000     0.876700000000     0.597300000000     0          
H228     H      0.164000000000     0.906400000000     0.589300000000     0          
C229     C      0.383800000000     0.631000000000     0.680400000000     0          
C230     C      0.166500000000     0.792800000000     0.620900000000     0          
C231     C      0.359000000000     0.702500000000     0.657600000000     0          
H232     H      0.357000000000     0.733000000000     0.662300000000     0          
C233     C      0.310900000000     0.711500000000     0.590200000000     0          
C234     C      0.197100000000     0.844600000000     0.574500000000     0          
H235     H      0.216000000000     0.853400000000     0.550600000000     0          
C236     C      0.131800000000     0.866400000000     0.627200000000     0          
C237     C      0.201800000000     0.803900000000     0.587000000000     0          
C238     C      0.124800000000     0.822500000000     0.640500000000     0          
H239     H      0.097000000000     0.813500000000     0.659600000000     0          
C240     C      0.343400000000     0.639400000000     0.613200000000     0          
H241     H      0.333900000000     0.627300000000     0.588000000000     0          
C242     C      0.242400000000     0.770600000000     0.574600000000     0          
C243     C      0.335100000000     0.685200000000     0.621000000000     0          
C244     C      0.254200000000     0.764000000000     0.533300000000     0          
C245     C      0.469760000000     0.035910000000     0.697200000000     0          
O246     O      0.573900000000     0.458800000000     0.217980000000     0          
O247     O      0.609400000000     0.440340000000     0.139990000000     0          
O248     O      0.889300000000     0.059900000000     0.206410000000     0          
O249     O      0.939300000000     0.115700000000     0.240000000000     0          
O250     O      0.561200000000     0.384300000000     0.176600000000     0          
C251     C      0.905300000000     0.097700000000     0.211500000000     0          
C252     C      0.601100000000     0.402700000000     0.147200000000     0          
C253     C      0.885300000000     0.175400000000     0.186900000000     0          
H254     H      0.903100000000     0.187400000000     0.209900000000     0          
C255     C      0.823300000000     0.205700000000     0.049700000000     0          
H256     H      0.851600000000     0.185400000000     0.041100000000     0          
C257     C      0.774900000000     0.245800000000     0.101200000000     0          
H258     H      0.772300000000     0.252700000000     0.128700000000     0          
C259     C      0.865400000000     0.113800000000     0.143400000000     0          
H260     H      0.868400000000     0.083200000000     0.139100000000     0          
C261     C      0.791500000000     0.231400000000     0.022000000000     0          
C262     C      0.662800000000     0.376700000000     0.097300000000     0          
H263     H      0.664000000000     0.406400000000     0.089300000000     0          
C264     C      0.883800000000     0.131000000000     0.180400000000     0          
C265     C      0.666500000000     0.292800000000     0.120900000000     0          
C266     C      0.859000000000     0.202500000000     0.157600000000     0          
H267     H      0.857000000000     0.233000000000     0.162300000000     0          
C268     C      0.810900000000     0.211500000000     0.090200000000     0          
C269     C      0.697100000000     0.344600000000     0.074500000000     0          
H270     H      0.716000000000     0.353400000000     0.050600000000     0          
C271     C      0.631800000000     0.366400000000     0.127200000000     0          
C272     C      0.701800000000     0.303900000000     0.087000000000     0          
C273     C      0.624800000000     0.322500000000     0.140500000000     0          
H274     H      0.597000000000     0.313500000000     0.159600000000     0          
C275     C      0.843400000000     0.139400000000     0.113200000000     0          
H276     H      0.833900000000     0.127300000000     0.088000000000     0          
C277     C      0.742400000000     0.270600000000     0.074600000000     0          
C278     C      0.835100000000     0.185200000000     0.121000000000     0          
C279     C      0.754200000000     0.264000000000     0.033300000000     0          
C280     C      0.969760000000     0.535910000000     0.197200000000     0          
O281     O      0.926100000000     0.958800000000     0.717980000000     0          
O282     O      0.890600000000     0.940340000000     0.639990000000     0          
O283     O      0.610700000000     0.559900000000     0.706410000000     0          
O284     O      0.560700000000     0.615700000000     0.740000000000     0          
O285     O      0.938800000000     0.884300000000     0.676600000000     0          
C286     C      0.594700000000     0.597700000000     0.711500000000     0          
C287     C      0.898900000000     0.902700000000     0.647200000000     0          
C288     C      0.614700000000     0.675400000000     0.686900000000     0          
H289     H      0.596900000000     0.687400000000     0.709900000000     0          
C290     C      0.676700000000     0.705700000000     0.549700000000     0          
H291     H      0.648400000000     0.685400000000     0.541100000000     0          
C292     C      0.725100000000     0.745800000000     0.601200000000     0          
H293     H      0.727700000000     0.752700000000     0.628700000000     0          
C294     C      0.634600000000     0.613800000000     0.643400000000     0          
H295     H      0.631600000000     0.583200000000     0.639100000000     0          
C296     C      0.708500000000     0.731400000000     0.522000000000     0          
C297     C      0.837200000000     0.876700000000     0.597300000000     0          
H298     H      0.836000000000     0.906400000000     0.589300000000     0          
C299     C      0.616200000000     0.631000000000     0.680400000000     0          
C300     C      0.833500000000     0.792800000000     0.620900000000     0          
C301     C      0.641000000000     0.702500000000     0.657600000000     0          
H302     H      0.643000000000     0.733000000000     0.662300000000     0          
C303     C      0.689100000000     0.711500000000     0.590200000000     0          
C304     C      0.802900000000     0.844600000000     0.574500000000     0          
H305     H      0.784000000000     0.853400000000     0.550600000000     0          
C306     C      0.868200000000     0.866400000000     0.627200000000     0          
C307     C      0.798200000000     0.803900000000     0.587000000000     0          
C308     C      0.875200000000     0.822500000000     0.640500000000     0          
H309     H      0.903000000000     0.813500000000     0.659600000000     0          
C310     C      0.656600000000     0.639400000000     0.613200000000     0          
H311     H      0.666100000000     0.627300000000     0.588000000000     0          
C312     C      0.757600000000     0.770600000000     0.574600000000     0          
C313     C      0.664900000000     0.685200000000     0.621000000000     0          
C314     C      0.745800000000     0.764000000000     0.533300000000     0          
C315     C      0.530240000000     0.035910000000     0.697200000000     0          
O316     O      0.426100000000     0.458800000000     0.217980000000     0          
O317     O      0.390600000000     0.440340000000     0.139990000000     0          
O318     O      0.110700000000     0.059900000000     0.206410000000     0          
O319     O      0.060700000000     0.115700000000     0.240000000000     0          
O320     O      0.438800000000     0.384300000000     0.176600000000     0          
C321     C      0.094700000000     0.097700000000     0.211500000000     0          
C322     C      0.398900000000     0.402700000000     0.147200000000     0          
C323     C      0.114700000000     0.175400000000     0.186900000000     0          
H324     H      0.096900000000     0.187400000000     0.209900000000     0          
C325     C      0.176700000000     0.205700000000     0.049700000000     0          
H326     H      0.148400000000     0.185400000000     0.041100000000     0          
C327     C      0.225100000000     0.245800000000     0.101200000000     0          
H328     H      0.227700000000     0.252700000000     0.128700000000     0          
C329     C      0.134600000000     0.113800000000     0.143400000000     0          
H330     H      0.131600000000     0.083200000000     0.139100000000     0          
C331     C      0.208500000000     0.231400000000     0.022000000000     0          
C332     C      0.337200000000     0.376700000000     0.097300000000     0          
H333     H      0.336000000000     0.406400000000     0.089300000000     0          
C334     C      0.116200000000     0.131000000000     0.180400000000     0          
C335     C      0.333500000000     0.292800000000     0.120900000000     0          
C336     C      0.141000000000     0.202500000000     0.157600000000     0          
H337     H      0.143000000000     0.233000000000     0.162300000000     0          
C338     C      0.189100000000     0.211500000000     0.090200000000     0          
C339     C      0.302900000000     0.344600000000     0.074500000000     0          
H340     H      0.284000000000     0.353400000000     0.050600000000     0          
C341     C      0.368200000000     0.366400000000     0.127200000000     0          
C342     C      0.298200000000     0.303900000000     0.087000000000     0          
C343     C      0.375200000000     0.322500000000     0.140500000000     0          
H344     H      0.403000000000     0.313500000000     0.159600000000     0          
C345     C      0.156600000000     0.139400000000     0.113200000000     0          
H346     H      0.166100000000     0.127300000000     0.088000000000     0          
C347     C      0.257600000000     0.270600000000     0.074600000000     0          
C348     C      0.164900000000     0.185200000000     0.121000000000     0          
C349     C      0.245800000000     0.264000000000     0.033300000000     0          
C350     C      0.030240000000     0.535910000000     0.197200000000     0          
O351     O      0.073900000000     0.041200000000     0.717980000000     0          
O352     O      0.109400000000     0.059660000000     0.639990000000     0          
O353     O      0.389300000000     0.440100000000     0.706410000000     0          
O354     O      0.439300000000     0.384300000000     0.740000000000     0          
O355     O      0.061200000000     0.115700000000     0.676600000000     0          
C356     C      0.405300000000     0.402300000000     0.711500000000     0          
C357     C      0.101100000000     0.097300000000     0.647200000000     0          
C358     C      0.385300000000     0.324600000000     0.686900000000     0          
H359     H      0.403100000000     0.312600000000     0.709900000000     0          
C360     C      0.323300000000     0.294300000000     0.549700000000     0          
H361     H      0.351600000000     0.314600000000     0.541100000000     0          
C362     C      0.274900000000     0.254200000000     0.601200000000     0          
H363     H      0.272300000000     0.247300000000     0.628700000000     0          
C364     C      0.365400000000     0.386200000000     0.643400000000     0          
H365     H      0.368400000000     0.416800000000     0.639100000000     0          
C366     C      0.291500000000     0.268600000000     0.522000000000     0          
C367     C      0.162800000000     0.123300000000     0.597300000000     0          
H368     H      0.164000000000     0.093600000000     0.589300000000     0          
C369     C      0.383800000000     0.369000000000     0.680400000000     0          
C370     C      0.166500000000     0.207200000000     0.620900000000     0          
C371     C      0.359000000000     0.297500000000     0.657600000000     0          
H372     H      0.357000000000     0.267000000000     0.662300000000     0          
C373     C      0.310900000000     0.288500000000     0.590200000000     0          
C374     C      0.197100000000     0.155400000000     0.574500000000     0          
H375     H      0.216000000000     0.146600000000     0.550600000000     0          
C376     C      0.131800000000     0.133600000000     0.627200000000     0          
C377     C      0.201800000000     0.196100000000     0.587000000000     0          
C378     C      0.124800000000     0.177500000000     0.640500000000     0          
H379     H      0.097000000000     0.186500000000     0.659600000000     0          
C380     C      0.343400000000     0.360600000000     0.613200000000     0          
H381     H      0.333900000000     0.372700000000     0.588000000000     0          
C382     C      0.242400000000     0.229400000000     0.574600000000     0          
C383     C      0.335100000000     0.314800000000     0.621000000000     0          
C384     C      0.254200000000     0.236000000000     0.533300000000     0          
C385     C      0.469760000000     0.964090000000     0.697200000000     0          
O386     O      0.573900000000     0.541200000000     0.217980000000     0          
O387     O      0.609400000000     0.559660000000     0.139990000000     0          
O388     O      0.889300000000     0.940100000000     0.206410000000     0          
O389     O      0.939300000000     0.884300000000     0.240000000000     0          
O390     O      0.561200000000     0.615700000000     0.176600000000     0          
C391     C      0.905300000000     0.902300000000     0.211500000000     0          
C392     C      0.601100000000     0.597300000000     0.147200000000     0          
C393     C      0.885300000000     0.824600000000     0.186900000000     0          
H394     H      0.903100000000     0.812600000000     0.209900000000     0          
C395     C      0.823300000000     0.794300000000     0.049700000000     0          
H396     H      0.851600000000     0.814600000000     0.041100000000     0          
C397     C      0.774900000000     0.754200000000     0.101200000000     0          
H398     H      0.772300000000     0.747300000000     0.128700000000     0          
C399     C      0.865400000000     0.886200000000     0.143400000000     0          
H400     H      0.868400000000     0.916800000000     0.139100000000     0          
C401     C      0.791500000000     0.768600000000     0.022000000000     0          
C402     C      0.662800000000     0.623300000000     0.097300000000     0          
H403     H      0.664000000000     0.593600000000     0.089300000000     0          
C404     C      0.883800000000     0.869000000000     0.180400000000     0          
C405     C      0.666500000000     0.707200000000     0.120900000000     0          
C406     C      0.859000000000     0.797500000000     0.157600000000     0          
H407     H      0.857000000000     0.767000000000     0.162300000000     0          
C408     C      0.810900000000     0.788500000000     0.090200000000     0          
C409     C      0.697100000000     0.655400000000     0.074500000000     0          
H410     H      0.716000000000     0.646600000000     0.050600000000     0          
C411     C      0.631800000000     0.633600000000     0.127200000000     0          
C412     C      0.701800000000     0.696100000000     0.087000000000     0          
C413     C      0.624800000000     0.677500000000     0.140500000000     0          
H414     H      0.597000000000     0.686500000000     0.159600000000     0          
C415     C      0.843400000000     0.860600000000     0.113200000000     0          
H416     H      0.833900000000     0.872700000000     0.088000000000     0          
C417     C      0.742400000000     0.729400000000     0.074600000000     0          
C418     C      0.835100000000     0.814800000000     0.121000000000     0          
C419     C      0.754200000000     0.736000000000     0.033300000000     0          
C420     C      0.969760000000     0.464090000000     0.197200000000     0          
O421     O      0.073900000000     0.958800000000     0.282020000000     0          
O422     O      0.109400000000     0.940340000000     0.360010000000     0          
O423     O      0.389300000000     0.559900000000     0.293590000000     0          
O424     O      0.439300000000     0.615700000000     0.260000000000     0          
O425     O      0.061200000000     0.884300000000     0.323400000000     0          
C426     C      0.405300000000     0.597700000000     0.288500000000     0          
C427     C      0.101100000000     0.902700000000     0.352800000000     0          
C428     C      0.385300000000     0.675400000000     0.313100000000     0          
H429     H      0.403100000000     0.687400000000     0.290100000000     0          
C430     C      0.323300000000     0.705700000000     0.450300000000     0          
H431     H      0.351600000000     0.685400000000     0.458900000000     0          
C432     C      0.274900000000     0.745800000000     0.398800000000     0          
H433     H      0.272300000000     0.752700000000     0.371300000000     0          
C434     C      0.365400000000     0.613800000000     0.356600000000     0          
H435     H      0.368400000000     0.583200000000     0.360900000000     0          
C436     C      0.291500000000     0.731400000000     0.478000000000     0          
C437     C      0.162800000000     0.876700000000     0.402700000000     0          
H438     H      0.164000000000     0.906400000000     0.410700000000     0          
C439     C      0.383800000000     0.631000000000     0.319600000000     0          
C440     C      0.166500000000     0.792800000000     0.379100000000     0          
C441     C      0.359000000000     0.702500000000     0.342400000000     0          
H442     H      0.357000000000     0.733000000000     0.337700000000     0          
C443     C      0.310900000000     0.711500000000     0.409800000000     0          
C444     C      0.197100000000     0.844600000000     0.425500000000     0          
H445     H      0.216000000000     0.853400000000     0.449400000000     0          
C446     C      0.131800000000     0.866400000000     0.372800000000     0          
C447     C      0.201800000000     0.803900000000     0.413000000000     0          
C448     C      0.124800000000     0.822500000000     0.359500000000     0          
H449     H      0.097000000000     0.813500000000     0.340400000000     0          
C450     C      0.343400000000     0.639400000000     0.386800000000     0          
H451     H      0.333900000000     0.627300000000     0.412000000000     0          
C452     C      0.242400000000     0.770600000000     0.425400000000     0          
C453     C      0.335100000000     0.685200000000     0.379000000000     0          
C454     C      0.254200000000     0.764000000000     0.466700000000     0          
C455     C      0.469760000000     0.035910000000     0.302800000000     0          
O456     O      0.573900000000     0.458800000000     0.782020000000     0          
O457     O      0.609400000000     0.440340000000     0.860010000000     0          
O458     O      0.889300000000     0.059900000000     0.793590000000     0          
O459     O      0.939300000000     0.115700000000     0.760000000000     0          
O460     O      0.561200000000     0.384300000000     0.823400000000     0          
C461     C      0.905300000000     0.097700000000     0.788500000000     0          
C462     C      0.601100000000     0.402700000000     0.852800000000     0          
C463     C      0.885300000000     0.175400000000     0.813100000000     0          
H464     H      0.903100000000     0.187400000000     0.790100000000     0          
C465     C      0.823300000000     0.205700000000     0.950300000000     0          
H466     H      0.851600000000     0.185400000000     0.958900000000     0          
C467     C      0.774900000000     0.245800000000     0.898800000000     0          
H468     H      0.772300000000     0.252700000000     0.871300000000     0          
C469     C      0.865400000000     0.113800000000     0.856600000000     0          
H470     H      0.868400000000     0.083200000000     0.860900000000     0          
C471     C      0.791500000000     0.231400000000     0.978000000000     0          
C472     C      0.662800000000     0.376700000000     0.902700000000     0          
H473     H      0.664000000000     0.406400000000     0.910700000000     0          
C474     C      0.883800000000     0.131000000000     0.819600000000     0          
C475     C      0.666500000000     0.292800000000     0.879100000000     0          
C476     C      0.859000000000     0.202500000000     0.842400000000     0          
H477     H      0.857000000000     0.233000000000     0.837700000000     0          
C478     C      0.810900000000     0.211500000000     0.909800000000     0          
C479     C      0.697100000000     0.344600000000     0.925500000000     0          
H480     H      0.716000000000     0.353400000000     0.949400000000     0          
C481     C      0.631800000000     0.366400000000     0.872800000000     0          
C482     C      0.701800000000     0.303900000000     0.913000000000     0          
C483     C      0.624800000000     0.322500000000     0.859500000000     0          
H484     H      0.597000000000     0.313500000000     0.840400000000     0          
C485     C      0.843400000000     0.139400000000     0.886800000000     0          
H486     H      0.833900000000     0.127300000000     0.912000000000     0          
C487     C      0.742400000000     0.270600000000     0.925400000000     0          
C488     C      0.835100000000     0.185200000000     0.879000000000     0          
C489     C      0.754200000000     0.264000000000     0.966700000000     0          
C490     C      0.969760000000     0.535910000000     0.802800000000     0          
O491     O      0.926100000000     0.041200000000     0.282020000000     0          
O492     O      0.890600000000     0.059660000000     0.360010000000     0          
O493     O      0.610700000000     0.440100000000     0.293590000000     0          
O494     O      0.560700000000     0.384300000000     0.260000000000     0          
O495     O      0.938800000000     0.115700000000     0.323400000000     0          
C496     C      0.594700000000     0.402300000000     0.288500000000     0          
C497     C      0.898900000000     0.097300000000     0.352800000000     0          
C498     C      0.614700000000     0.324600000000     0.313100000000     0          
H499     H      0.596900000000     0.312600000000     0.290100000000     0          
C500     C      0.676700000000     0.294300000000     0.450300000000     0          
H501     H      0.648400000000     0.314600000000     0.458900000000     0          
C502     C      0.725100000000     0.254200000000     0.398800000000     0          
H503     H      0.727700000000     0.247300000000     0.371300000000     0          
C504     C      0.634600000000     0.386200000000     0.356600000000     0          
H505     H      0.631600000000     0.416800000000     0.360900000000     0          
C506     C      0.708500000000     0.268600000000     0.478000000000     0          
C507     C      0.837200000000     0.123300000000     0.402700000000     0          
H508     H      0.836000000000     0.093600000000     0.410700000000     0          
C509     C      0.616200000000     0.369000000000     0.319600000000     0          
C510     C      0.833500000000     0.207200000000     0.379100000000     0          
C511     C      0.641000000000     0.297500000000     0.342400000000     0          
H512     H      0.643000000000     0.267000000000     0.337700000000     0          
C513     C      0.689100000000     0.288500000000     0.409800000000     0          
C514     C      0.802900000000     0.155400000000     0.425500000000     0          
H515     H      0.784000000000     0.146600000000     0.449400000000     0          
C516     C      0.868200000000     0.133600000000     0.372800000000     0          
C517     C      0.798200000000     0.196100000000     0.413000000000     0          
C518     C      0.875200000000     0.177500000000     0.359500000000     0          
H519     H      0.903000000000     0.186500000000     0.340400000000     0          
C520     C      0.656600000000     0.360600000000     0.386800000000     0          
H521     H      0.666100000000     0.372700000000     0.412000000000     0          
C522     C      0.757600000000     0.229400000000     0.425400000000     0          
C523     C      0.664900000000     0.314800000000     0.379000000000     0          
C524     C      0.745800000000     0.236000000000     0.466700000000     0          
C525     C      0.530240000000     0.964090000000     0.302800000000     0          
O526     O      0.426100000000     0.541200000000     0.782020000000     0          
O527     O      0.390600000000     0.559660000000     0.860010000000     0          
O528     O      0.110700000000     0.940100000000     0.793590000000     0          
O529     O      0.060700000000     0.884300000000     0.760000000000     0          
O530     O      0.438800000000     0.615700000000     0.823400000000     0          
C531     C      0.094700000000     0.902300000000     0.788500000000     0          
C532     C      0.398900000000     0.597300000000     0.852800000000     0          
C533     C      0.114700000000     0.824600000000     0.813100000000     0          
H534     H      0.096900000000     0.812600000000     0.790100000000     0          
C535     C      0.176700000000     0.794300000000     0.950300000000     0          
H536     H      0.148400000000     0.814600000000     0.958900000000     0          
C537     C      0.225100000000     0.754200000000     0.898800000000     0          
H538     H      0.227700000000     0.747300000000     0.871300000000     0          
C539     C      0.134600000000     0.886200000000     0.856600000000     0          
H540     H      0.131600000000     0.916800000000     0.860900000000     0          
C541     C      0.208500000000     0.768600000000     0.978000000000     0          
C542     C      0.337200000000     0.623300000000     0.902700000000     0          
H543     H      0.336000000000     0.593600000000     0.910700000000     0          
C544     C      0.116200000000     0.869000000000     0.819600000000     0          
C545     C      0.333500000000     0.707200000000     0.879100000000     0          
C546     C      0.141000000000     0.797500000000     0.842400000000     0          
H547     H      0.143000000000     0.767000000000     0.837700000000     0          
C548     C      0.189100000000     0.788500000000     0.909800000000     0          
C549     C      0.302900000000     0.655400000000     0.925500000000     0          
H550     H      0.284000000000     0.646600000000     0.949400000000     0          
C551     C      0.368200000000     0.633600000000     0.872800000000     0          
C552     C      0.298200000000     0.696100000000     0.913000000000     0          
C553     C      0.375200000000     0.677500000000     0.859500000000     0          
H554     H      0.403000000000     0.686500000000     0.840400000000     0          
C555     C      0.156600000000     0.860600000000     0.886800000000     0          
H556     H      0.166100000000     0.872700000000     0.912000000000     0          
C557     C      0.257600000000     0.729400000000     0.925400000000     0          
C558     C      0.164900000000     0.814800000000     0.879000000000     0          
C559     C      0.245800000000     0.736000000000     0.966700000000     0          
C560     C      0.030240000000     0.464090000000     0.802800000000     0          
Zr561    Zr     0.075250000000     0.000000000000     0.334360000000     0          
Zr562    Zr     0.075140000000     0.000000000000     0.230450000000     0          
C563     C      0.048300000000     0.000000000000     0.085700000000     0          
H564     H      0.083300000000     0.000000000000     0.100400000000     0          
O565     O      0.049100000000     0.000000000000     0.397250000000     0          
O566     O      0.166700000000     0.000000000000     0.249100000000     0          
O567     O      0.047300000000     0.000000000000     0.166100000000     0          
C568     C      0.051600000000     0.000000000000     0.480400000000     0          
H569     H      0.086900000000     0.000000000000     0.466100000000     0          
O570     O      0.166500000000     0.000000000000     0.317100000000     0          
C571     C      0.051500000000     0.000000000000     0.043800000000     0          
H572     H      0.087300000000     0.000000000000     0.030200000000     0          
C573     C      0.192900000000     0.000000000000     0.283600000000     0          
C574     C      0.250400000000     0.000000000000     0.283800000000     0          
C575     C      0.343200000000     0.000000000000     0.319600000000     0          
H576     H      0.361600000000     0.000000000000     0.344900000000     0          
C577     C      0.285000000000     0.000000000000     0.249700000000     0          
H578     H      0.266500000000     0.000000000000     0.224500000000     0          
C579     C      0.377700000000     0.000000000000     0.285500000000     0          
C580     C      0.345100000000     0.000000000000     0.250600000000     0          
H581     H      0.365000000000     0.000000000000     0.225900000000     0          
C582     C      0.283100000000     0.000000000000     0.318700000000     0          
H583     H      0.263100000000     0.000000000000     0.343400000000     0          
C584     C      0.441700000000     0.000000000000     0.285600000000     0          
Zr585    Zr     0.575250000000     0.500000000000     0.834360000000     0          
Zr586    Zr     0.575140000000     0.500000000000     0.730450000000     0          
C587     C      0.548300000000     0.500000000000     0.585700000000     0          
H588     H      0.583300000000     0.500000000000     0.600400000000     0          
O589     O      0.549100000000     0.500000000000     0.897250000000     0          
O590     O      0.666700000000     0.500000000000     0.749100000000     0          
O591     O      0.547300000000     0.500000000000     0.666100000000     0          
C592     C      0.551600000000     0.500000000000     0.980400000000     0          
H593     H      0.586900000000     0.500000000000     0.966100000000     0          
O594     O      0.666500000000     0.500000000000     0.817100000000     0          
C595     C      0.551500000000     0.500000000000     0.543800000000     0          
H596     H      0.587300000000     0.500000000000     0.530200000000     0          
C597     C      0.692900000000     0.500000000000     0.783600000000     0          
C598     C      0.750400000000     0.500000000000     0.783800000000     0          
C599     C      0.843200000000     0.500000000000     0.819600000000     0          
H600     H      0.861600000000     0.500000000000     0.844900000000     0          
C601     C      0.785000000000     0.500000000000     0.749700000000     0          
H602     H      0.766500000000     0.500000000000     0.724500000000     0          
C603     C      0.877700000000     0.500000000000     0.785500000000     0          
C604     C      0.845100000000     0.500000000000     0.750600000000     0          
H605     H      0.865000000000     0.500000000000     0.725900000000     0          
C606     C      0.783100000000     0.500000000000     0.818700000000     0          
H607     H      0.763100000000     0.500000000000     0.843400000000     0          
C608     C      0.941700000000     0.500000000000     0.785600000000     0          
Zr609    Zr     0.924750000000     0.000000000000     0.334360000000     0          
Zr610    Zr     0.924860000000     0.000000000000     0.230450000000     0          
C611     C      0.951700000000     0.000000000000     0.085700000000     0          
H612     H      0.916700000000     0.000000000000     0.100400000000     0          
O613     O      0.950900000000     0.000000000000     0.397250000000     0          
O614     O      0.833300000000     0.000000000000     0.249100000000     0          
O615     O      0.952700000000     0.000000000000     0.166100000000     0          
C616     C      0.948400000000     0.000000000000     0.480400000000     0          
H617     H      0.913100000000     0.000000000000     0.466100000000     0          
O618     O      0.833500000000     0.000000000000     0.317100000000     0          
C619     C      0.948500000000     0.000000000000     0.043800000000     0          
H620     H      0.912700000000     0.000000000000     0.030200000000     0          
C621     C      0.807100000000     0.000000000000     0.283600000000     0          
C622     C      0.749600000000     0.000000000000     0.283800000000     0          
C623     C      0.656800000000     0.000000000000     0.319600000000     0          
H624     H      0.638400000000     0.000000000000     0.344900000000     0          
C625     C      0.715000000000     0.000000000000     0.249700000000     0          
H626     H      0.733500000000     0.000000000000     0.224500000000     0          
C627     C      0.622300000000     0.000000000000     0.285500000000     0          
C628     C      0.654900000000     0.000000000000     0.250600000000     0          
H629     H      0.635000000000     0.000000000000     0.225900000000     0          
C630     C      0.716900000000     0.000000000000     0.318700000000     0          
H631     H      0.736900000000     0.000000000000     0.343400000000     0          
C632     C      0.558300000000     0.000000000000     0.285600000000     0          
Zr633    Zr     0.424750000000     0.500000000000     0.834360000000     0          
Zr634    Zr     0.424860000000     0.500000000000     0.730450000000     0          
C635     C      0.451700000000     0.500000000000     0.585700000000     0          
H636     H      0.416700000000     0.500000000000     0.600400000000     0          
O637     O      0.450900000000     0.500000000000     0.897250000000     0          
O638     O      0.333300000000     0.500000000000     0.749100000000     0          
O639     O      0.452700000000     0.500000000000     0.666100000000     0          
C640     C      0.448400000000     0.500000000000     0.980400000000     0          
H641     H      0.413100000000     0.500000000000     0.966100000000     0          
O642     O      0.333500000000     0.500000000000     0.817100000000     0          
C643     C      0.448500000000     0.500000000000     0.543800000000     0          
H644     H      0.412700000000     0.500000000000     0.530200000000     0          
C645     C      0.307100000000     0.500000000000     0.783600000000     0          
C646     C      0.249600000000     0.500000000000     0.783800000000     0          
C647     C      0.156800000000     0.500000000000     0.819600000000     0          
H648     H      0.138400000000     0.500000000000     0.844900000000     0          
C649     C      0.215000000000     0.500000000000     0.749700000000     0          
H650     H      0.233500000000     0.500000000000     0.724500000000     0          
C651     C      0.122300000000     0.500000000000     0.785500000000     0          
C652     C      0.154900000000     0.500000000000     0.750600000000     0          
H653     H      0.135000000000     0.500000000000     0.725900000000     0          
C654     C      0.216900000000     0.500000000000     0.818700000000     0          
H655     H      0.236900000000     0.500000000000     0.843400000000     0          
C656     C      0.058300000000     0.500000000000     0.785600000000     0          
Zr657    Zr     0.924750000000     0.000000000000     0.665640000000     0          
Zr658    Zr     0.924860000000     0.000000000000     0.769550000000     0          
C659     C      0.951700000000     0.000000000000     0.914300000000     0          
H660     H      0.916700000000     0.000000000000     0.899600000000     0          
O661     O      0.950900000000     0.000000000000     0.602750000000     0          
O662     O      0.833300000000     0.000000000000     0.750900000000     0          
O663     O      0.952700000000     0.000000000000     0.833900000000     0          
C664     C      0.948400000000     0.000000000000     0.519600000000     0          
H665     H      0.913100000000     0.000000000000     0.533900000000     0          
O666     O      0.833500000000     0.000000000000     0.682900000000     0          
C667     C      0.948500000000     0.000000000000     0.956200000000     0          
H668     H      0.912700000000     0.000000000000     0.969800000000     0          
C669     C      0.807100000000     0.000000000000     0.716400000000     0          
C670     C      0.749600000000     0.000000000000     0.716200000000     0          
C671     C      0.656800000000     0.000000000000     0.680400000000     0          
H672     H      0.638400000000     0.000000000000     0.655100000000     0          
C673     C      0.715000000000     0.000000000000     0.750300000000     0          
H674     H      0.733500000000     0.000000000000     0.775500000000     0          
C675     C      0.622300000000     0.000000000000     0.714500000000     0          
C676     C      0.654900000000     0.000000000000     0.749400000000     0          
H677     H      0.635000000000     0.000000000000     0.774100000000     0          
C678     C      0.716900000000     0.000000000000     0.681300000000     0          
H679     H      0.736900000000     0.000000000000     0.656600000000     0          
C680     C      0.558300000000     0.000000000000     0.714400000000     0          
Zr681    Zr     0.424750000000     0.500000000000     0.165640000000     0          
Zr682    Zr     0.424860000000     0.500000000000     0.269550000000     0          
C683     C      0.451700000000     0.500000000000     0.414300000000     0          
H684     H      0.416700000000     0.500000000000     0.399600000000     0          
O685     O      0.450900000000     0.500000000000     0.102750000000     0          
O686     O      0.333300000000     0.500000000000     0.250900000000     0          
O687     O      0.452700000000     0.500000000000     0.333900000000     0          
C688     C      0.448400000000     0.500000000000     0.019600000000     0          
H689     H      0.413100000000     0.500000000000     0.033900000000     0          
O690     O      0.333500000000     0.500000000000     0.182900000000     0          
C691     C      0.448500000000     0.500000000000     0.456200000000     0          
H692     H      0.412700000000     0.500000000000     0.469800000000     0          
C693     C      0.307100000000     0.500000000000     0.216400000000     0          
C694     C      0.249600000000     0.500000000000     0.216200000000     0          
C695     C      0.156800000000     0.500000000000     0.180400000000     0          
H696     H      0.138400000000     0.500000000000     0.155100000000     0          
C697     C      0.215000000000     0.500000000000     0.250300000000     0          
H698     H      0.233500000000     0.500000000000     0.275500000000     0          
C699     C      0.122300000000     0.500000000000     0.214500000000     0          
C700     C      0.154900000000     0.500000000000     0.249400000000     0          
H701     H      0.135000000000     0.500000000000     0.274100000000     0          
C702     C      0.216900000000     0.500000000000     0.181300000000     0          
H703     H      0.236900000000     0.500000000000     0.156600000000     0          
C704     C      0.058300000000     0.500000000000     0.214400000000     0          
Zr705    Zr     0.075250000000     0.000000000000     0.665640000000     0          
Zr706    Zr     0.075140000000     0.000000000000     0.769550000000     0          
C707     C      0.048300000000     0.000000000000     0.914300000000     0          
H708     H      0.083300000000     0.000000000000     0.899600000000     0          
O709     O      0.049100000000     0.000000000000     0.602750000000     0          
O710     O      0.166700000000     0.000000000000     0.750900000000     0          
O711     O      0.047300000000     0.000000000000     0.833900000000     0          
C712     C      0.051600000000     0.000000000000     0.519600000000     0          
H713     H      0.086900000000     0.000000000000     0.533900000000     0          
O714     O      0.166500000000     0.000000000000     0.682900000000     0          
C715     C      0.051500000000     0.000000000000     0.956200000000     0          
H716     H      0.087300000000     0.000000000000     0.969800000000     0          
C717     C      0.192900000000     0.000000000000     0.716400000000     0          
C718     C      0.250400000000     0.000000000000     0.716200000000     0          
C719     C      0.343200000000     0.000000000000     0.680400000000     0          
H720     H      0.361600000000     0.000000000000     0.655100000000     0          
C721     C      0.285000000000     0.000000000000     0.750300000000     0          
H722     H      0.266500000000     0.000000000000     0.775500000000     0          
C723     C      0.377700000000     0.000000000000     0.714500000000     0          
C724     C      0.345100000000     0.000000000000     0.749400000000     0          
H725     H      0.365000000000     0.000000000000     0.774100000000     0          
C726     C      0.283100000000     0.000000000000     0.681300000000     0          
H727     H      0.263100000000     0.000000000000     0.656600000000     0          
C728     C      0.441700000000     0.000000000000     0.714400000000     0          
Zr729    Zr     0.575250000000     0.500000000000     0.165640000000     0          
Zr730    Zr     0.575140000000     0.500000000000     0.269550000000     0          
C731     C      0.548300000000     0.500000000000     0.414300000000     0          
H732     H      0.583300000000     0.500000000000     0.399600000000     0          
O733     O      0.549100000000     0.500000000000     0.102750000000     0          
O734     O      0.666700000000     0.500000000000     0.250900000000     0          
O735     O      0.547300000000     0.500000000000     0.333900000000     0          
C736     C      0.551600000000     0.500000000000     0.019600000000     0          
H737     H      0.586900000000     0.500000000000     0.033900000000     0          
O738     O      0.666500000000     0.500000000000     0.182900000000     0          
C739     C      0.551500000000     0.500000000000     0.456200000000     0          
H740     H      0.587300000000     0.500000000000     0.469800000000     0          
C741     C      0.692900000000     0.500000000000     0.216400000000     0          
C742     C      0.750400000000     0.500000000000     0.216200000000     0          
C743     C      0.843200000000     0.500000000000     0.180400000000     0          
H744     H      0.861600000000     0.500000000000     0.155100000000     0          
C745     C      0.785000000000     0.500000000000     0.250300000000     0          
H746     H      0.766500000000     0.500000000000     0.275500000000     0          
C747     C      0.877700000000     0.500000000000     0.214500000000     0          
C748     C      0.845100000000     0.500000000000     0.249400000000     0          
H749     H      0.865000000000     0.500000000000     0.274100000000     0          
C750     C      0.783100000000     0.500000000000     0.181300000000     0          
H751     H      0.763100000000     0.500000000000     0.156600000000     0          
C752     C      0.941700000000     0.500000000000     0.214400000000     0          
Zr753    Zr     0.000000000000     0.080840000000     0.281970000000     0          
O754     O      0.000000000000     0.041800000000     0.334000000000     0          
O755     O      0.000000000000     0.039900000000     0.231100000000     0          
Zr756    Zr     0.500000000000     0.580840000000     0.781970000000     0          
O757     O      0.500000000000     0.541800000000     0.834000000000     0          
O758     O      0.500000000000     0.539900000000     0.731100000000     0          
Zr759    Zr     0.000000000000     0.919160000000     0.281970000000     0          
O760     O      0.000000000000     0.958200000000     0.334000000000     0          
O761     O      0.000000000000     0.960100000000     0.231100000000     0          
Zr762    Zr     0.500000000000     0.419160000000     0.781970000000     0          
O763     O      0.500000000000     0.458200000000     0.834000000000     0          
O764     O      0.500000000000     0.460100000000     0.731100000000     0          
Zr765    Zr     0.000000000000     0.080840000000     0.718030000000     0          
O766     O      0.000000000000     0.041800000000     0.666000000000     0          
O767     O      0.000000000000     0.039900000000     0.768900000000     0          
Zr768    Zr     0.500000000000     0.580840000000     0.218030000000     0          
O769     O      0.500000000000     0.541800000000     0.166000000000     0          
O770     O      0.500000000000     0.539900000000     0.268900000000     0          
Zr771    Zr     0.000000000000     0.919160000000     0.718030000000     0          
O772     O      0.000000000000     0.958200000000     0.666000000000     0          
O773     O      0.000000000000     0.960100000000     0.768900000000     0          
Zr774    Zr     0.500000000000     0.419160000000     0.218030000000     0          
O775     O      0.500000000000     0.458200000000     0.166000000000     0          
O776     O      0.500000000000     0.460100000000     0.268900000000     0          
C777     C      0.000000000000     0.000000000000     0.460200000000     0          
C778     C      0.000000000000     0.000000000000     0.413900000000     0          
C779     C      0.000000000000     0.000000000000     0.149600000000     0          
C780     C      0.000000000000     0.000000000000     0.023700000000     0          
C781     C      0.000000000000     0.000000000000     0.105500000000     0          
C782     C      0.500000000000     0.500000000000     0.960200000000     0          
C783     C      0.500000000000     0.500000000000     0.913900000000     0          
C784     C      0.500000000000     0.500000000000     0.649600000000     0          
C785     C      0.500000000000     0.500000000000     0.523700000000     0          
C786     C      0.500000000000     0.500000000000     0.605500000000     0          
C787     C      0.000000000000     0.000000000000     0.539800000000     0          
C788     C      0.000000000000     0.000000000000     0.586100000000     0          
C789     C      0.000000000000     0.000000000000     0.850400000000     0          
C790     C      0.000000000000     0.000000000000     0.976300000000     0          
C791     C      0.000000000000     0.000000000000     0.894500000000     0          
C792     C      0.500000000000     0.500000000000     0.039800000000     0          
C793     C      0.500000000000     0.500000000000     0.086100000000     0          
C794     C      0.500000000000     0.500000000000     0.350400000000     0          
C795     C      0.500000000000     0.500000000000     0.476300000000     0          
C796     C      0.500000000000     0.500000000000     0.394500000000     0          
N797     N      0.231800000000     0.216100000000     0.500000000000     0          
H798     H      0.207200000000     0.194200000000     0.500000000000     0          
N799     N      0.731800000000     0.716100000000     0.000000000000     0          
H800     H      0.707200000000     0.694200000000     0.000000000000     0          
N801     N      0.768200000000     0.783900000000     0.500000000000     0          
H802     H      0.792800000000     0.805800000000     0.500000000000     0          
N803     N      0.268200000000     0.283900000000     0.000000000000     0          
H804     H      0.292800000000     0.305800000000     0.000000000000     0          
N805     N      0.768200000000     0.216100000000     0.500000000000     0          
H806     H      0.792800000000     0.194200000000     0.500000000000     0          
N807     N      0.268200000000     0.716100000000     0.000000000000     0          
H808     H      0.292800000000     0.694200000000     0.000000000000     0          
N809     N      0.231800000000     0.783900000000     0.500000000000     0          
H810     H      0.207200000000     0.805800000000     0.500000000000     0          
N811     N      0.731800000000     0.283900000000     0.000000000000     0          
H812     H      0.707200000000     0.305800000000     0.000000000000     0          
H813     H      0.169500000000     0.758860000000     0.634680000000     0          
H814     H      0.169500000000     0.758860000000     0.365320000000     0          
H815     H      0.330500000000     0.741140000000     0.134680000000     0          
H816     H      0.169500000000     0.241140000000     0.365320000000     0          
H817     H      0.330500000000     0.258860000000     0.134680000000     0          
H818     H      0.669500000000     0.741140000000     0.134680000000     0          
H819     H      0.830500000000     0.758860000000     0.365320000000     0          
H820     H      0.830500000000     0.241140000000     0.634680000000     0          
H821     H      0.669500000000     0.258860000000     0.134680000000     0          
H822     H      0.830500000000     0.241140000000     0.365320000000     0          
H823     H      0.669500000000     0.741140000000     0.865320000000     0          
H824     H      0.330500000000     0.741140000000     0.865320000000     0          
H825     H      0.330500000000     0.258860000000     0.865320000000     0          
H826     H      0.169500000000     0.241140000000     0.634680000000     0          
H827     H      0.669500000000     0.258860000000     0.865320000000     0          
H828     H      0.830500000000     0.758860000000     0.634680000000     0          
C829     C      0.934100000000     0.425410000000     0.817500000000     0          
H830     H      0.943500000000     0.563760000000     0.816140000000     0          
C831     C      0.065900000000     0.574590000000     0.814770000000     0          
H832     H      0.056500000000     0.436240000000     0.816140000000     0          
H833     H      0.943500000000     0.563760000000     0.183860000000     0          
C834     C      0.934100000000     0.425410000000     0.185230000000     0          
H835     H      0.056500000000     0.436240000000     0.183860000000     0          
C836     C      0.065900000000     0.574590000000     0.182500000000     0          
H837     H      0.963820000000     0.400070000000     0.831510000000     0          
H838     H      0.910180000000     0.410140000000     0.791300000000     0          
H839     H      0.901670000000     0.437140000000     0.840660000000     0          
H840     H      0.084770000000     0.590610000000     0.787020000000     0          
H841     H      0.102350000000     0.563440000000     0.835140000000     0          
H842     H      0.037680000000     0.599120000000     0.831260000000     0          
H843     H      0.952480000000     0.394660000000     0.199530000000     0          
H844     H      0.934900000000     0.421830000000     0.151410000000     0          
H845     H      0.887810000000     0.430340000000     0.195640000000     0          
H846     H      0.059730000000     0.578570000000     0.148980000000     0          
H847     H      0.113370000000     0.568500000000     0.189200000000     0          
H848     H      0.051220000000     0.605580000000     0.198340000000     0          
C849     C      0.433370000000     0.925680000000     0.315960000000     0          
H850     H      0.556500000000     0.936240000000     0.683860000000     0          
C851     C      0.433370000000     0.925680000000     0.683690000000     0          
H852     H      0.556500000000     0.936240000000     0.316140000000     0          
C853     C      0.566630000000     0.074320000000     0.316310000000     0          
H854     H      0.443500000000     0.063760000000     0.683860000000     0          
C855     C      0.566630000000     0.074320000000     0.684040000000     0          
H856     H      0.443500000000     0.063760000000     0.316140000000     0          
H857     H      0.462180000000     0.899910000000     0.330240000000     0          
H858     H      0.410570000000     0.911040000000     0.289000000000     0          
H859     H      0.399980000000     0.937170000000     0.338560000000     0          
H860     H      0.450920000000     0.894340000000     0.697410000000     0          
H861     H      0.434950000000     0.923120000000     0.649800000000     0          
H862     H      0.386920000000     0.930730000000     0.693700000000     0          
H863     H      0.586420000000     0.090990000000     0.289200000000     0          
H864     H      0.602400000000     0.062210000000     0.336800000000     0          
H865     H      0.538390000000     0.098600000000     0.333090000000     0          
H866     H      0.562080000000     0.078960000000     0.650470000000     0          
H867     H      0.613690000000     0.067830000000     0.691710000000     0          
H868     H      0.551500000000     0.105090000000     0.700030000000     0          


