data_NIHHOE

_audit_creation_method RASPA-1.0
_audit_creation_date 2020-11-2
_audit_author_name 'Rocio Bueno-Perez'

_cell_length_a    23.203
_cell_length_b    31.023
_cell_length_c    33.332
_cell_angle_alpha 90
_cell_angle_beta  90
_cell_angle_gamma 90
_cell_volume      23993.3

_symmetry_cell_setting          triclinic
_symmetry_space_group_name_Hall 'P 1'
_symmetry_space_group_name_H-M  'P 1'
_symmetry_Int_Tables_number     1

_symmetry_equiv_pos_as_xyz 'x,y,z'

loop_
_atom_site_label
_atom_site_type_symbol
_atom_site_fract_x
_atom_site_fract_y
_atom_site_fract_z
_atom_site_charge
O1       O      0.110400000000     0.059600000000     0.360000000000     0          
O2       O      0.060000000000     0.116000000000     0.322700000000     0          
O3       O      0.441600000000     0.384400000000     0.260300000000     0          
O4       O      0.390200000000     0.439200000000     0.296100000000     0          
O5       O      0.074800000000     0.040600000000     0.282730000000     0          
C6       C      0.098900000000     0.096600000000     0.352200000000     0          
C7       C      0.126800000000     0.134400000000     0.372600000000     0          
C8       C      0.162500000000     0.122100000000     0.404400000000     0          
H9       H      0.165100000000     0.093200000000     0.411600000000     0          
C10      C      0.195100000000     0.153600000000     0.425600000000     0          
H11      H      0.214400000000     0.146400000000     0.449100000000     0          
C12      C      0.197500000000     0.196000000000     0.410300000000     0          
C13      C      0.158700000000     0.209000000000     0.379600000000     0          
H14      H      0.154900000000     0.237900000000     0.372900000000     0          
C15      C      0.126000000000     0.177700000000     0.359400000000     0          
H16      H      0.103900000000     0.185400000000     0.337300000000     0          
C17      C      0.246200000000     0.222000000000     0.428700000000     0          
C18      C      0.253100000000     0.234500000000     0.464600000000     0          
C19      C      0.296600000000     0.264300000000     0.478800000000     0          
C20      C      0.317900000000     0.294700000000     0.452200000000     0          
H21      H      0.336600000000     0.319500000000     0.461000000000     0          
C22      C      0.309300000000     0.285900000000     0.409000000000     0          
C23      C      0.273100000000     0.255200000000     0.398400000000     0          
H24      H      0.262900000000     0.253100000000     0.371500000000     0          
C25      C      0.333800000000     0.313000000000     0.378000000000     0          
C26      C      0.338500000000     0.359300000000     0.387200000000     0          
H27      H      0.327200000000     0.370700000000     0.411700000000     0          
C28      C      0.362000000000     0.386200000000     0.355300000000     0          
H29      H      0.366100000000     0.415500000000     0.360500000000     0          
C30      C      0.378900000000     0.371300000000     0.317800000000     0          
C31      C      0.377600000000     0.331000000000     0.311800000000     0          
H32      H      0.391800000000     0.319100000000     0.288100000000     0          
C33      C      0.351300000000     0.301800000000     0.345300000000     0          
H34      H      0.348700000000     0.272600000000     0.339500000000     0          
C35      C      0.407200000000     0.397100000000     0.286700000000     0          
C36      C      0.469500000000     0.032000000000     0.306700000000     0          
O37      O      0.610400000000     0.559600000000     0.860000000000     0          
O38      O      0.560000000000     0.616000000000     0.822700000000     0          
O39      O      0.941600000000     0.884400000000     0.760300000000     0          
O40      O      0.890200000000     0.939200000000     0.796100000000     0          
O41      O      0.574800000000     0.540600000000     0.782730000000     0          
C42      C      0.598900000000     0.596600000000     0.852200000000     0          
C43      C      0.626800000000     0.634400000000     0.872600000000     0          
C44      C      0.662500000000     0.622100000000     0.904400000000     0          
H45      H      0.665100000000     0.593200000000     0.911600000000     0          
C46      C      0.695100000000     0.653600000000     0.925600000000     0          
H47      H      0.714400000000     0.646400000000     0.949100000000     0          
C48      C      0.697500000000     0.696000000000     0.910300000000     0          
C49      C      0.658700000000     0.709000000000     0.879600000000     0          
H50      H      0.654900000000     0.737900000000     0.872900000000     0          
C51      C      0.626000000000     0.677700000000     0.859400000000     0          
H52      H      0.603900000000     0.685400000000     0.837300000000     0          
C53      C      0.746200000000     0.722000000000     0.928700000000     0          
C54      C      0.753100000000     0.734500000000     0.964600000000     0          
C55      C      0.796600000000     0.764300000000     0.978800000000     0          
C56      C      0.817900000000     0.794700000000     0.952200000000     0          
H57      H      0.836600000000     0.819500000000     0.961000000000     0          
C58      C      0.809300000000     0.785900000000     0.909000000000     0          
C59      C      0.773100000000     0.755200000000     0.898400000000     0          
H60      H      0.762900000000     0.753100000000     0.871500000000     0          
C61      C      0.833800000000     0.813000000000     0.878000000000     0          
C62      C      0.838500000000     0.859300000000     0.887200000000     0          
H63      H      0.827200000000     0.870700000000     0.911700000000     0          
C64      C      0.862000000000     0.886200000000     0.855300000000     0          
H65      H      0.866100000000     0.915500000000     0.860500000000     0          
C66      C      0.878900000000     0.871300000000     0.817800000000     0          
C67      C      0.877600000000     0.831000000000     0.811800000000     0          
H68      H      0.891800000000     0.819100000000     0.788100000000     0          
C69      C      0.851300000000     0.801800000000     0.845300000000     0          
H70      H      0.848700000000     0.772600000000     0.839500000000     0          
C71      C      0.907200000000     0.897100000000     0.786700000000     0          
C72      C      0.969830000000     0.528400000000     0.761500000000     0          
O73      O      0.889600000000     0.940400000000     0.360000000000     0          
O74      O      0.940000000000     0.884000000000     0.322700000000     0          
O75      O      0.558400000000     0.615600000000     0.260300000000     0          
O76      O      0.609800000000     0.560800000000     0.296100000000     0          
O77      O      0.925200000000     0.959400000000     0.282730000000     0          
C78      C      0.901100000000     0.903400000000     0.352200000000     0          
C79      C      0.873200000000     0.865600000000     0.372600000000     0          
C80      C      0.837500000000     0.877900000000     0.404400000000     0          
H81      H      0.834900000000     0.906800000000     0.411600000000     0          
C82      C      0.804900000000     0.846400000000     0.425600000000     0          
H83      H      0.785600000000     0.853600000000     0.449100000000     0          
C84      C      0.802500000000     0.804000000000     0.410300000000     0          
C85      C      0.841300000000     0.791000000000     0.379600000000     0          
H86      H      0.845100000000     0.762100000000     0.372900000000     0          
C87      C      0.874000000000     0.822300000000     0.359400000000     0          
H88      H      0.896100000000     0.814600000000     0.337300000000     0          
C89      C      0.753800000000     0.778000000000     0.428700000000     0          
C90      C      0.746900000000     0.765500000000     0.464600000000     0          
C91      C      0.703400000000     0.735700000000     0.478800000000     0          
C92      C      0.682100000000     0.705300000000     0.452200000000     0          
H93      H      0.663400000000     0.680500000000     0.461000000000     0          
C94      C      0.690700000000     0.714100000000     0.409000000000     0          
C95      C      0.726900000000     0.744800000000     0.398400000000     0          
H96      H      0.737100000000     0.746900000000     0.371500000000     0          
C97      C      0.666200000000     0.687000000000     0.378000000000     0          
C98      C      0.661500000000     0.640700000000     0.387200000000     0          
H99      H      0.672800000000     0.629300000000     0.411700000000     0          
C100     C      0.638000000000     0.613800000000     0.355300000000     0          
H101     H      0.633900000000     0.584500000000     0.360500000000     0          
C102     C      0.621100000000     0.628700000000     0.317800000000     0          
C103     C      0.622400000000     0.669000000000     0.311800000000     0          
H104     H      0.608200000000     0.680900000000     0.288100000000     0          
C105     C      0.648700000000     0.698200000000     0.345300000000     0          
H106     H      0.651300000000     0.727400000000     0.339500000000     0          
C107     C      0.592800000000     0.602900000000     0.286700000000     0          
C108     C      0.530170000000     0.971600000000     0.261500000000     0          
O109     O      0.389600000000     0.440400000000     0.860000000000     0          
O110     O      0.440000000000     0.384000000000     0.822700000000     0          
O111     O      0.058400000000     0.115600000000     0.760300000000     0          
O112     O      0.109800000000     0.060800000000     0.796100000000     0          
O113     O      0.425200000000     0.459400000000     0.782730000000     0          
C114     C      0.401100000000     0.403400000000     0.852200000000     0          
C115     C      0.373200000000     0.365600000000     0.872600000000     0          
C116     C      0.337500000000     0.377900000000     0.904400000000     0          
H117     H      0.334900000000     0.406800000000     0.911600000000     0          
C118     C      0.304900000000     0.346400000000     0.925600000000     0          
H119     H      0.285600000000     0.353600000000     0.949100000000     0          
C120     C      0.302500000000     0.304000000000     0.910300000000     0          
C121     C      0.341300000000     0.291000000000     0.879600000000     0          
H122     H      0.345100000000     0.262100000000     0.872900000000     0          
C123     C      0.374000000000     0.322300000000     0.859400000000     0          
H124     H      0.396100000000     0.314600000000     0.837300000000     0          
C125     C      0.253800000000     0.278000000000     0.928700000000     0          
C126     C      0.246900000000     0.265500000000     0.964600000000     0          
C127     C      0.203400000000     0.235700000000     0.978800000000     0          
C128     C      0.182100000000     0.205300000000     0.952200000000     0          
H129     H      0.163400000000     0.180500000000     0.961000000000     0          
C130     C      0.190700000000     0.214100000000     0.909000000000     0          
C131     C      0.226900000000     0.244800000000     0.898400000000     0          
H132     H      0.237100000000     0.246900000000     0.871500000000     0          
C133     C      0.166200000000     0.187000000000     0.878000000000     0          
C134     C      0.161500000000     0.140700000000     0.887200000000     0          
H135     H      0.172800000000     0.129300000000     0.911700000000     0          
C136     C      0.138000000000     0.113800000000     0.855300000000     0          
H137     H      0.133900000000     0.084500000000     0.860500000000     0          
C138     C      0.121100000000     0.128700000000     0.817800000000     0          
C139     C      0.122400000000     0.169000000000     0.811800000000     0          
H140     H      0.108200000000     0.180900000000     0.788100000000     0          
C141     C      0.148700000000     0.198200000000     0.845300000000     0          
H142     H      0.151300000000     0.227400000000     0.839500000000     0          
C143     C      0.092800000000     0.102900000000     0.786700000000     0          
C144     C      0.030500000000     0.468000000000     0.806700000000     0          
O145     O      0.889600000000     0.059600000000     0.640000000000     0          
O146     O      0.940000000000     0.116000000000     0.677300000000     0          
O147     O      0.558400000000     0.384400000000     0.739700000000     0          
O148     O      0.609800000000     0.439200000000     0.703900000000     0          
O149     O      0.925200000000     0.040600000000     0.717270000000     0          
C150     C      0.901100000000     0.096600000000     0.647800000000     0          
C151     C      0.873200000000     0.134400000000     0.627400000000     0          
C152     C      0.837500000000     0.122100000000     0.595600000000     0          
H153     H      0.834900000000     0.093200000000     0.588400000000     0          
C154     C      0.804900000000     0.153600000000     0.574400000000     0          
H155     H      0.785600000000     0.146400000000     0.550900000000     0          
C156     C      0.802500000000     0.196000000000     0.589700000000     0          
C157     C      0.841300000000     0.209000000000     0.620400000000     0          
H158     H      0.845100000000     0.237900000000     0.627100000000     0          
C159     C      0.874000000000     0.177700000000     0.640600000000     0          
H160     H      0.896100000000     0.185400000000     0.662700000000     0          
C161     C      0.753800000000     0.222000000000     0.571300000000     0          
C162     C      0.746900000000     0.234500000000     0.535400000000     0          
C163     C      0.703400000000     0.264300000000     0.521200000000     0          
C164     C      0.682100000000     0.294700000000     0.547800000000     0          
H165     H      0.663400000000     0.319500000000     0.539000000000     0          
C166     C      0.690700000000     0.285900000000     0.591000000000     0          
C167     C      0.726900000000     0.255200000000     0.601600000000     0          
H168     H      0.737100000000     0.253100000000     0.628500000000     0          
C169     C      0.666200000000     0.313000000000     0.622000000000     0          
C170     C      0.661500000000     0.359300000000     0.612800000000     0          
H171     H      0.672800000000     0.370700000000     0.588300000000     0          
C172     C      0.638000000000     0.386200000000     0.644700000000     0          
H173     H      0.633900000000     0.415500000000     0.639500000000     0          
C174     C      0.621100000000     0.371300000000     0.682200000000     0          
C175     C      0.622400000000     0.331000000000     0.688200000000     0          
H176     H      0.608200000000     0.319100000000     0.711900000000     0          
C177     C      0.648700000000     0.301800000000     0.654700000000     0          
H178     H      0.651300000000     0.272600000000     0.660500000000     0          
C179     C      0.592800000000     0.397100000000     0.713300000000     0          
C180     C      0.530500000000     0.032000000000     0.693300000000     0          
O181     O      0.389600000000     0.559600000000     0.140000000000     0          
O182     O      0.440000000000     0.616000000000     0.177300000000     0          
O183     O      0.058400000000     0.884400000000     0.239700000000     0          
O184     O      0.109800000000     0.939200000000     0.203900000000     0          
O185     O      0.425200000000     0.540600000000     0.217270000000     0          
C186     C      0.401100000000     0.596600000000     0.147800000000     0          
C187     C      0.373200000000     0.634400000000     0.127400000000     0          
C188     C      0.337500000000     0.622100000000     0.095600000000     0          
H189     H      0.334900000000     0.593200000000     0.088400000000     0          
C190     C      0.304900000000     0.653600000000     0.074400000000     0          
H191     H      0.285600000000     0.646400000000     0.050900000000     0          
C192     C      0.302500000000     0.696000000000     0.089700000000     0          
C193     C      0.341300000000     0.709000000000     0.120400000000     0          
H194     H      0.345100000000     0.737900000000     0.127100000000     0          
C195     C      0.374000000000     0.677700000000     0.140600000000     0          
H196     H      0.396100000000     0.685400000000     0.162700000000     0          
C197     C      0.253800000000     0.722000000000     0.071300000000     0          
C198     C      0.246900000000     0.734500000000     0.035400000000     0          
C199     C      0.203400000000     0.764300000000     0.021200000000     0          
C200     C      0.182100000000     0.794700000000     0.047800000000     0          
H201     H      0.163400000000     0.819500000000     0.039000000000     0          
C202     C      0.190700000000     0.785900000000     0.091000000000     0          
C203     C      0.226900000000     0.755200000000     0.101600000000     0          
H204     H      0.237100000000     0.753100000000     0.128500000000     0          
C205     C      0.166200000000     0.813000000000     0.122000000000     0          
C206     C      0.161500000000     0.859300000000     0.112800000000     0          
H207     H      0.172800000000     0.870700000000     0.088300000000     0          
C208     C      0.138000000000     0.886200000000     0.144700000000     0          
H209     H      0.133900000000     0.915500000000     0.139500000000     0          
C210     C      0.121100000000     0.871300000000     0.182200000000     0          
C211     C      0.122400000000     0.831000000000     0.188200000000     0          
H212     H      0.108200000000     0.819100000000     0.211900000000     0          
C213     C      0.148700000000     0.801800000000     0.154700000000     0          
H214     H      0.151300000000     0.772600000000     0.160500000000     0          
C215     C      0.092800000000     0.897100000000     0.213300000000     0          
C216     C      0.030500000000     0.532000000000     0.193300000000     0          
O217     O      0.110400000000     0.940400000000     0.640000000000     0          
O218     O      0.060000000000     0.884000000000     0.677300000000     0          
O219     O      0.441600000000     0.615600000000     0.739700000000     0          
O220     O      0.390200000000     0.560800000000     0.703900000000     0          
O221     O      0.074800000000     0.959400000000     0.717270000000     0          
C222     C      0.098900000000     0.903400000000     0.647800000000     0          
C223     C      0.126800000000     0.865600000000     0.627400000000     0          
C224     C      0.162500000000     0.877900000000     0.595600000000     0          
H225     H      0.165100000000     0.906800000000     0.588400000000     0          
C226     C      0.195100000000     0.846400000000     0.574400000000     0          
H227     H      0.214400000000     0.853600000000     0.550900000000     0          
C228     C      0.197500000000     0.804000000000     0.589700000000     0          
C229     C      0.158700000000     0.791000000000     0.620400000000     0          
H230     H      0.154900000000     0.762100000000     0.627100000000     0          
C231     C      0.126000000000     0.822300000000     0.640600000000     0          
H232     H      0.103900000000     0.814600000000     0.662700000000     0          
C233     C      0.246200000000     0.778000000000     0.571300000000     0          
C234     C      0.253100000000     0.765500000000     0.535400000000     0          
C235     C      0.296600000000     0.735700000000     0.521200000000     0          
C236     C      0.317900000000     0.705300000000     0.547800000000     0          
H237     H      0.336600000000     0.680500000000     0.539000000000     0          
C238     C      0.309300000000     0.714100000000     0.591000000000     0          
C239     C      0.273100000000     0.744800000000     0.601600000000     0          
H240     H      0.262900000000     0.746900000000     0.628500000000     0          
C241     C      0.333800000000     0.687000000000     0.622000000000     0          
C242     C      0.338500000000     0.640700000000     0.612800000000     0          
H243     H      0.327200000000     0.629300000000     0.588300000000     0          
C244     C      0.362000000000     0.613800000000     0.644700000000     0          
H245     H      0.366100000000     0.584500000000     0.639500000000     0          
C246     C      0.378900000000     0.628700000000     0.682200000000     0          
C247     C      0.377600000000     0.669000000000     0.688200000000     0          
H248     H      0.391800000000     0.680900000000     0.711900000000     0          
C249     C      0.351300000000     0.698200000000     0.654700000000     0          
H250     H      0.348700000000     0.727400000000     0.660500000000     0          
C251     C      0.407200000000     0.602900000000     0.713300000000     0          
C252     C      0.469830000000     0.971600000000     0.738500000000     0          
O253     O      0.610400000000     0.440400000000     0.140000000000     0          
O254     O      0.560000000000     0.384000000000     0.177300000000     0          
O255     O      0.941600000000     0.115600000000     0.239700000000     0          
O256     O      0.890200000000     0.060800000000     0.203900000000     0          
O257     O      0.574800000000     0.459400000000     0.217270000000     0          
C258     C      0.598900000000     0.403400000000     0.147800000000     0          
C259     C      0.626800000000     0.365600000000     0.127400000000     0          
C260     C      0.662500000000     0.377900000000     0.095600000000     0          
H261     H      0.665100000000     0.406800000000     0.088400000000     0          
C262     C      0.695100000000     0.346400000000     0.074400000000     0          
H263     H      0.714400000000     0.353600000000     0.050900000000     0          
C264     C      0.697500000000     0.304000000000     0.089700000000     0          
C265     C      0.658700000000     0.291000000000     0.120400000000     0          
H266     H      0.654900000000     0.262100000000     0.127100000000     0          
C267     C      0.626000000000     0.322300000000     0.140600000000     0          
H268     H      0.603900000000     0.314600000000     0.162700000000     0          
C269     C      0.746200000000     0.278000000000     0.071300000000     0          
C270     C      0.753100000000     0.265500000000     0.035400000000     0          
C271     C      0.796600000000     0.235700000000     0.021200000000     0          
C272     C      0.817900000000     0.205300000000     0.047800000000     0          
H273     H      0.836600000000     0.180500000000     0.039000000000     0          
C274     C      0.809300000000     0.214100000000     0.091000000000     0          
C275     C      0.773100000000     0.244800000000     0.101600000000     0          
H276     H      0.762900000000     0.246900000000     0.128500000000     0          
C277     C      0.833800000000     0.187000000000     0.122000000000     0          
C278     C      0.838500000000     0.140700000000     0.112800000000     0          
H279     H      0.827200000000     0.129300000000     0.088300000000     0          
C280     C      0.862000000000     0.113800000000     0.144700000000     0          
H281     H      0.866100000000     0.084500000000     0.139500000000     0          
C282     C      0.878900000000     0.128700000000     0.182200000000     0          
C283     C      0.877600000000     0.169000000000     0.188200000000     0          
H284     H      0.891800000000     0.180900000000     0.211900000000     0          
C285     C      0.851300000000     0.198200000000     0.154700000000     0          
H286     H      0.848700000000     0.227400000000     0.160500000000     0          
C287     C      0.907200000000     0.102900000000     0.213300000000     0          
C288     C      0.969830000000     0.471600000000     0.238500000000     0          
O289     O      0.889600000000     0.940400000000     0.640000000000     0          
O290     O      0.940000000000     0.884000000000     0.677300000000     0          
O291     O      0.558400000000     0.615600000000     0.739700000000     0          
O292     O      0.609800000000     0.560800000000     0.703900000000     0          
O293     O      0.925200000000     0.959400000000     0.717270000000     0          
C294     C      0.901100000000     0.903400000000     0.647800000000     0          
C295     C      0.873200000000     0.865600000000     0.627400000000     0          
C296     C      0.837500000000     0.877900000000     0.595600000000     0          
H297     H      0.834900000000     0.906800000000     0.588400000000     0          
C298     C      0.804900000000     0.846400000000     0.574400000000     0          
H299     H      0.785600000000     0.853600000000     0.550900000000     0          
C300     C      0.802500000000     0.804000000000     0.589700000000     0          
C301     C      0.841300000000     0.791000000000     0.620400000000     0          
H302     H      0.845100000000     0.762100000000     0.627100000000     0          
C303     C      0.874000000000     0.822300000000     0.640600000000     0          
H304     H      0.896100000000     0.814600000000     0.662700000000     0          
C305     C      0.753800000000     0.778000000000     0.571300000000     0          
C306     C      0.746900000000     0.765500000000     0.535400000000     0          
C307     C      0.703400000000     0.735700000000     0.521200000000     0          
C308     C      0.682100000000     0.705300000000     0.547800000000     0          
H309     H      0.663400000000     0.680500000000     0.539000000000     0          
C310     C      0.690700000000     0.714100000000     0.591000000000     0          
C311     C      0.726900000000     0.744800000000     0.601600000000     0          
H312     H      0.737100000000     0.746900000000     0.628500000000     0          
C313     C      0.666200000000     0.687000000000     0.622000000000     0          
C314     C      0.661500000000     0.640700000000     0.612800000000     0          
H315     H      0.672800000000     0.629300000000     0.588300000000     0          
C316     C      0.638000000000     0.613800000000     0.644700000000     0          
H317     H      0.633900000000     0.584500000000     0.639500000000     0          
C318     C      0.621100000000     0.628700000000     0.682200000000     0          
C319     C      0.622400000000     0.669000000000     0.688200000000     0          
H320     H      0.608200000000     0.680900000000     0.711900000000     0          
C321     C      0.648700000000     0.698200000000     0.654700000000     0          
H322     H      0.651300000000     0.727400000000     0.660500000000     0          
C323     C      0.592800000000     0.602900000000     0.713300000000     0          
C324     C      0.530170000000     0.971600000000     0.738500000000     0          
O325     O      0.389600000000     0.440400000000     0.140000000000     0          
O326     O      0.440000000000     0.384000000000     0.177300000000     0          
O327     O      0.058400000000     0.115600000000     0.239700000000     0          
O328     O      0.109800000000     0.060800000000     0.203900000000     0          
O329     O      0.425200000000     0.459400000000     0.217270000000     0          
C330     C      0.401100000000     0.403400000000     0.147800000000     0          
C331     C      0.373200000000     0.365600000000     0.127400000000     0          
C332     C      0.337500000000     0.377900000000     0.095600000000     0          
H333     H      0.334900000000     0.406800000000     0.088400000000     0          
C334     C      0.304900000000     0.346400000000     0.074400000000     0          
H335     H      0.285600000000     0.353600000000     0.050900000000     0          
C336     C      0.302500000000     0.304000000000     0.089700000000     0          
C337     C      0.341300000000     0.291000000000     0.120400000000     0          
H338     H      0.345100000000     0.262100000000     0.127100000000     0          
C339     C      0.374000000000     0.322300000000     0.140600000000     0          
H340     H      0.396100000000     0.314600000000     0.162700000000     0          
C341     C      0.253800000000     0.278000000000     0.071300000000     0          
C342     C      0.246900000000     0.265500000000     0.035400000000     0          
C343     C      0.203400000000     0.235700000000     0.021200000000     0          
C344     C      0.182100000000     0.205300000000     0.047800000000     0          
H345     H      0.163400000000     0.180500000000     0.039000000000     0          
C346     C      0.190700000000     0.214100000000     0.091000000000     0          
C347     C      0.226900000000     0.244800000000     0.101600000000     0          
H348     H      0.237100000000     0.246900000000     0.128500000000     0          
C349     C      0.166200000000     0.187000000000     0.122000000000     0          
C350     C      0.161500000000     0.140700000000     0.112800000000     0          
H351     H      0.172800000000     0.129300000000     0.088300000000     0          
C352     C      0.138000000000     0.113800000000     0.144700000000     0          
H353     H      0.133900000000     0.084500000000     0.139500000000     0          
C354     C      0.121100000000     0.128700000000     0.182200000000     0          
C355     C      0.122400000000     0.169000000000     0.188200000000     0          
H356     H      0.108200000000     0.180900000000     0.211900000000     0          
C357     C      0.148700000000     0.198200000000     0.154700000000     0          
H358     H      0.151300000000     0.227400000000     0.160500000000     0          
C359     C      0.092800000000     0.102900000000     0.213300000000     0          
C360     C      0.030170000000     0.471600000000     0.238500000000     0          
O361     O      0.110400000000     0.059600000000     0.640000000000     0          
O362     O      0.060000000000     0.116000000000     0.677300000000     0          
O363     O      0.441600000000     0.384400000000     0.739700000000     0          
O364     O      0.390200000000     0.439200000000     0.703900000000     0          
O365     O      0.074800000000     0.040600000000     0.717270000000     0          
C366     C      0.098900000000     0.096600000000     0.647800000000     0          
C367     C      0.126800000000     0.134400000000     0.627400000000     0          
C368     C      0.162500000000     0.122100000000     0.595600000000     0          
H369     H      0.165100000000     0.093200000000     0.588400000000     0          
C370     C      0.195100000000     0.153600000000     0.574400000000     0          
H371     H      0.214400000000     0.146400000000     0.550900000000     0          
C372     C      0.197500000000     0.196000000000     0.589700000000     0          
C373     C      0.158700000000     0.209000000000     0.620400000000     0          
H374     H      0.154900000000     0.237900000000     0.627100000000     0          
C375     C      0.126000000000     0.177700000000     0.640600000000     0          
H376     H      0.103900000000     0.185400000000     0.662700000000     0          
C377     C      0.246200000000     0.222000000000     0.571300000000     0          
C378     C      0.253100000000     0.234500000000     0.535400000000     0          
C379     C      0.296600000000     0.264300000000     0.521200000000     0          
C380     C      0.317900000000     0.294700000000     0.547800000000     0          
H381     H      0.336600000000     0.319500000000     0.539000000000     0          
C382     C      0.309300000000     0.285900000000     0.591000000000     0          
C383     C      0.273100000000     0.255200000000     0.601600000000     0          
H384     H      0.262900000000     0.253100000000     0.628500000000     0          
C385     C      0.333800000000     0.313000000000     0.622000000000     0          
C386     C      0.338500000000     0.359300000000     0.612800000000     0          
H387     H      0.327200000000     0.370700000000     0.588300000000     0          
C388     C      0.362000000000     0.386200000000     0.644700000000     0          
H389     H      0.366100000000     0.415500000000     0.639500000000     0          
C390     C      0.378900000000     0.371300000000     0.682200000000     0          
C391     C      0.377600000000     0.331000000000     0.688200000000     0          
H392     H      0.391800000000     0.319100000000     0.711900000000     0          
C393     C      0.351300000000     0.301800000000     0.654700000000     0          
H394     H      0.348700000000     0.272600000000     0.660500000000     0          
C395     C      0.407200000000     0.397100000000     0.713300000000     0          
C396     C      0.469500000000     0.032000000000     0.693300000000     0          
O397     O      0.610400000000     0.559600000000     0.140000000000     0          
O398     O      0.560000000000     0.616000000000     0.177300000000     0          
O399     O      0.941600000000     0.884400000000     0.239700000000     0          
O400     O      0.890200000000     0.939200000000     0.203900000000     0          
O401     O      0.574800000000     0.540600000000     0.217270000000     0          
C402     C      0.598900000000     0.596600000000     0.147800000000     0          
C403     C      0.626800000000     0.634400000000     0.127400000000     0          
C404     C      0.662500000000     0.622100000000     0.095600000000     0          
H405     H      0.665100000000     0.593200000000     0.088400000000     0          
C406     C      0.695100000000     0.653600000000     0.074400000000     0          
H407     H      0.714400000000     0.646400000000     0.050900000000     0          
C408     C      0.697500000000     0.696000000000     0.089700000000     0          
C409     C      0.658700000000     0.709000000000     0.120400000000     0          
H410     H      0.654900000000     0.737900000000     0.127100000000     0          
C411     C      0.626000000000     0.677700000000     0.140600000000     0          
H412     H      0.603900000000     0.685400000000     0.162700000000     0          
C413     C      0.746200000000     0.722000000000     0.071300000000     0          
C414     C      0.753100000000     0.734500000000     0.035400000000     0          
C415     C      0.796600000000     0.764300000000     0.021200000000     0          
C416     C      0.817900000000     0.794700000000     0.047800000000     0          
H417     H      0.836600000000     0.819500000000     0.039000000000     0          
C418     C      0.809300000000     0.785900000000     0.091000000000     0          
C419     C      0.773100000000     0.755200000000     0.101600000000     0          
H420     H      0.762900000000     0.753100000000     0.128500000000     0          
C421     C      0.833800000000     0.813000000000     0.122000000000     0          
C422     C      0.838500000000     0.859300000000     0.112800000000     0          
H423     H      0.827200000000     0.870700000000     0.088300000000     0          
C424     C      0.862000000000     0.886200000000     0.144700000000     0          
H425     H      0.866100000000     0.915500000000     0.139500000000     0          
C426     C      0.878900000000     0.871300000000     0.182200000000     0          
C427     C      0.877600000000     0.831000000000     0.188200000000     0          
H428     H      0.891800000000     0.819100000000     0.211900000000     0          
C429     C      0.851300000000     0.801800000000     0.154700000000     0          
H430     H      0.848700000000     0.772600000000     0.160500000000     0          
C431     C      0.907200000000     0.897100000000     0.213300000000     0          
C432     C      0.969500000000     0.532000000000     0.193300000000     0          
O433     O      0.110400000000     0.940400000000     0.360000000000     0          
O434     O      0.060000000000     0.884000000000     0.322700000000     0          
O435     O      0.441600000000     0.615600000000     0.260300000000     0          
O436     O      0.390200000000     0.560800000000     0.296100000000     0          
O437     O      0.074800000000     0.959400000000     0.282730000000     0          
C438     C      0.098900000000     0.903400000000     0.352200000000     0          
C439     C      0.126800000000     0.865600000000     0.372600000000     0          
C440     C      0.162500000000     0.877900000000     0.404400000000     0          
H441     H      0.165100000000     0.906800000000     0.411600000000     0          
C442     C      0.195100000000     0.846400000000     0.425600000000     0          
H443     H      0.214400000000     0.853600000000     0.449100000000     0          
C444     C      0.197500000000     0.804000000000     0.410300000000     0          
C445     C      0.158700000000     0.791000000000     0.379600000000     0          
H446     H      0.154900000000     0.762100000000     0.372900000000     0          
C447     C      0.126000000000     0.822300000000     0.359400000000     0          
H448     H      0.103900000000     0.814600000000     0.337300000000     0          
C449     C      0.246200000000     0.778000000000     0.428700000000     0          
C450     C      0.253100000000     0.765500000000     0.464600000000     0          
C451     C      0.296600000000     0.735700000000     0.478800000000     0          
C452     C      0.317900000000     0.705300000000     0.452200000000     0          
H453     H      0.336600000000     0.680500000000     0.461000000000     0          
C454     C      0.309300000000     0.714100000000     0.409000000000     0          
C455     C      0.273100000000     0.744800000000     0.398400000000     0          
H456     H      0.262900000000     0.746900000000     0.371500000000     0          
C457     C      0.333800000000     0.687000000000     0.378000000000     0          
C458     C      0.338500000000     0.640700000000     0.387200000000     0          
H459     H      0.327200000000     0.629300000000     0.411700000000     0          
C460     C      0.362000000000     0.613800000000     0.355300000000     0          
H461     H      0.366100000000     0.584500000000     0.360500000000     0          
C462     C      0.378900000000     0.628700000000     0.317800000000     0          
C463     C      0.377600000000     0.669000000000     0.311800000000     0          
H464     H      0.391800000000     0.680900000000     0.288100000000     0          
C465     C      0.351300000000     0.698200000000     0.345300000000     0          
H466     H      0.348700000000     0.727400000000     0.339500000000     0          
C467     C      0.407200000000     0.602900000000     0.286700000000     0          
C468     C      0.469830000000     0.971600000000     0.261500000000     0          
O469     O      0.610400000000     0.440400000000     0.860000000000     0          
O470     O      0.560000000000     0.384000000000     0.822700000000     0          
O471     O      0.941600000000     0.115600000000     0.760300000000     0          
O472     O      0.890200000000     0.060800000000     0.796100000000     0          
O473     O      0.574800000000     0.459400000000     0.782730000000     0          
C474     C      0.598900000000     0.403400000000     0.852200000000     0          
C475     C      0.626800000000     0.365600000000     0.872600000000     0          
C476     C      0.662500000000     0.377900000000     0.904400000000     0          
H477     H      0.665100000000     0.406800000000     0.911600000000     0          
C478     C      0.695100000000     0.346400000000     0.925600000000     0          
H479     H      0.714400000000     0.353600000000     0.949100000000     0          
C480     C      0.697500000000     0.304000000000     0.910300000000     0          
C481     C      0.658700000000     0.291000000000     0.879600000000     0          
H482     H      0.654900000000     0.262100000000     0.872900000000     0          
C483     C      0.626000000000     0.322300000000     0.859400000000     0          
H484     H      0.603900000000     0.314600000000     0.837300000000     0          
C485     C      0.746200000000     0.278000000000     0.928700000000     0          
C486     C      0.753100000000     0.265500000000     0.964600000000     0          
C487     C      0.796600000000     0.235700000000     0.978800000000     0          
C488     C      0.817900000000     0.205300000000     0.952200000000     0          
H489     H      0.836600000000     0.180500000000     0.961000000000     0          
C490     C      0.809300000000     0.214100000000     0.909000000000     0          
C491     C      0.773100000000     0.244800000000     0.898400000000     0          
H492     H      0.762900000000     0.246900000000     0.871500000000     0          
C493     C      0.833800000000     0.187000000000     0.878000000000     0          
C494     C      0.838500000000     0.140700000000     0.887200000000     0          
H495     H      0.827200000000     0.129300000000     0.911700000000     0          
C496     C      0.862000000000     0.113800000000     0.855300000000     0          
H497     H      0.866100000000     0.084500000000     0.860500000000     0          
C498     C      0.878900000000     0.128700000000     0.817800000000     0          
C499     C      0.877600000000     0.169000000000     0.811800000000     0          
H500     H      0.891800000000     0.180900000000     0.788100000000     0          
C501     C      0.851300000000     0.198200000000     0.845300000000     0          
H502     H      0.848700000000     0.227400000000     0.839500000000     0          
C503     C      0.907200000000     0.102900000000     0.786700000000     0          
C504     C      0.969500000000     0.468000000000     0.806700000000     0          
O505     O      0.889600000000     0.059600000000     0.360000000000     0          
O506     O      0.940000000000     0.116000000000     0.322700000000     0          
O507     O      0.558400000000     0.384400000000     0.260300000000     0          
O508     O      0.609800000000     0.439200000000     0.296100000000     0          
O509     O      0.925200000000     0.040600000000     0.282730000000     0          
C510     C      0.901100000000     0.096600000000     0.352200000000     0          
C511     C      0.873200000000     0.134400000000     0.372600000000     0          
C512     C      0.837500000000     0.122100000000     0.404400000000     0          
H513     H      0.834900000000     0.093200000000     0.411600000000     0          
C514     C      0.804900000000     0.153600000000     0.425600000000     0          
H515     H      0.785600000000     0.146400000000     0.449100000000     0          
C516     C      0.802500000000     0.196000000000     0.410300000000     0          
C517     C      0.841300000000     0.209000000000     0.379600000000     0          
H518     H      0.845100000000     0.237900000000     0.372900000000     0          
C519     C      0.874000000000     0.177700000000     0.359400000000     0          
H520     H      0.896100000000     0.185400000000     0.337300000000     0          
C521     C      0.753800000000     0.222000000000     0.428700000000     0          
C522     C      0.746900000000     0.234500000000     0.464600000000     0          
C523     C      0.703400000000     0.264300000000     0.478800000000     0          
C524     C      0.682100000000     0.294700000000     0.452200000000     0          
H525     H      0.663400000000     0.319500000000     0.461000000000     0          
C526     C      0.690700000000     0.285900000000     0.409000000000     0          
C527     C      0.726900000000     0.255200000000     0.398400000000     0          
H528     H      0.737100000000     0.253100000000     0.371500000000     0          
C529     C      0.666200000000     0.313000000000     0.378000000000     0          
C530     C      0.661500000000     0.359300000000     0.387200000000     0          
H531     H      0.672800000000     0.370700000000     0.411700000000     0          
C532     C      0.638000000000     0.386200000000     0.355300000000     0          
H533     H      0.633900000000     0.415500000000     0.360500000000     0          
C534     C      0.621100000000     0.371300000000     0.317800000000     0          
C535     C      0.622400000000     0.331000000000     0.311800000000     0          
H536     H      0.608200000000     0.319100000000     0.288100000000     0          
C537     C      0.648700000000     0.301800000000     0.345300000000     0          
H538     H      0.651300000000     0.272600000000     0.339500000000     0          
C539     C      0.592800000000     0.397100000000     0.286700000000     0          
C540     C      0.530500000000     0.032000000000     0.306700000000     0          
O541     O      0.389600000000     0.559600000000     0.860000000000     0          
O542     O      0.440000000000     0.616000000000     0.822700000000     0          
O543     O      0.058400000000     0.884400000000     0.760300000000     0          
O544     O      0.109800000000     0.939200000000     0.796100000000     0          
O545     O      0.425200000000     0.540600000000     0.782730000000     0          
C546     C      0.401100000000     0.596600000000     0.852200000000     0          
C547     C      0.373200000000     0.634400000000     0.872600000000     0          
C548     C      0.337500000000     0.622100000000     0.904400000000     0          
H549     H      0.334900000000     0.593200000000     0.911600000000     0          
C550     C      0.304900000000     0.653600000000     0.925600000000     0          
H551     H      0.285600000000     0.646400000000     0.949100000000     0          
C552     C      0.302500000000     0.696000000000     0.910300000000     0          
C553     C      0.341300000000     0.709000000000     0.879600000000     0          
H554     H      0.345100000000     0.737900000000     0.872900000000     0          
C555     C      0.374000000000     0.677700000000     0.859400000000     0          
H556     H      0.396100000000     0.685400000000     0.837300000000     0          
C557     C      0.253800000000     0.722000000000     0.928700000000     0          
C558     C      0.246900000000     0.734500000000     0.964600000000     0          
C559     C      0.203400000000     0.764300000000     0.978800000000     0          
C560     C      0.182100000000     0.794700000000     0.952200000000     0          
H561     H      0.163400000000     0.819500000000     0.961000000000     0          
C562     C      0.190700000000     0.785900000000     0.909000000000     0          
C563     C      0.226900000000     0.755200000000     0.898400000000     0          
H564     H      0.237100000000     0.753100000000     0.871500000000     0          
C565     C      0.166200000000     0.813000000000     0.878000000000     0          
C566     C      0.161500000000     0.859300000000     0.887200000000     0          
H567     H      0.172800000000     0.870700000000     0.911700000000     0          
C568     C      0.138000000000     0.886200000000     0.855300000000     0          
H569     H      0.133900000000     0.915500000000     0.860500000000     0          
C570     C      0.121100000000     0.871300000000     0.817800000000     0          
C571     C      0.122400000000     0.831000000000     0.811800000000     0          
H572     H      0.108200000000     0.819100000000     0.788100000000     0          
C573     C      0.148700000000     0.801800000000     0.845300000000     0          
H574     H      0.151300000000     0.772600000000     0.839500000000     0          
C575     C      0.092800000000     0.897100000000     0.786700000000     0          
C576     C      0.030170000000     0.528400000000     0.761500000000     0          
Zr577    Zr     0.075090000000     0.000000000000     0.333990000000     0          
Zr578    Zr     0.075310000000     0.000000000000     0.229960000000     0          
O579     O      0.166100000000     0.000000000000     0.316900000000     0          
O580     O      0.168100000000     0.000000000000     0.247500000000     0          
O581     O      0.047800000000     0.000000000000     0.396300000000     0          
C582     C      0.192700000000     0.000000000000     0.282800000000     0          
C583     C      0.254600000000     0.000000000000     0.281400000000     0          
C584     C      0.286200000000     0.000000000000     0.317700000000     0          
H585     H      0.266100000000     0.000000000000     0.341800000000     0          
C586     C      0.346100000000     0.000000000000     0.318800000000     0          
H587     H      0.365900000000     0.000000000000     0.343100000000     0          
C588     C      0.374200000000     0.000000000000     0.283800000000     0          
C589     C      0.344800000000     0.000000000000     0.249500000000     0          
H590     H      0.365600000000     0.000000000000     0.225600000000     0          
C591     C      0.285900000000     0.000000000000     0.247000000000     0          
H592     H      0.267600000000     0.000000000000     0.222200000000     0          
C593     C      0.438900000000     0.000000000000     0.286100000000     0          
C594     C      0.053100000000     0.000000000000     0.478000000000     0          
H595     H      0.087600000000     0.000000000000     0.463800000000     0          
Zr596    Zr     0.575090000000     0.500000000000     0.833990000000     0          
Zr597    Zr     0.575310000000     0.500000000000     0.729960000000     0          
O598     O      0.666100000000     0.500000000000     0.816900000000     0          
O599     O      0.668100000000     0.500000000000     0.747500000000     0          
O600     O      0.547800000000     0.500000000000     0.896300000000     0          
C601     C      0.692700000000     0.500000000000     0.782800000000     0          
C602     C      0.754600000000     0.500000000000     0.781400000000     0          
C603     C      0.786200000000     0.500000000000     0.817700000000     0          
H604     H      0.766100000000     0.500000000000     0.841800000000     0          
C605     C      0.846100000000     0.500000000000     0.818800000000     0          
H606     H      0.865900000000     0.500000000000     0.843100000000     0          
C607     C      0.874200000000     0.500000000000     0.783800000000     0          
C608     C      0.844800000000     0.500000000000     0.749500000000     0          
H609     H      0.865600000000     0.500000000000     0.725600000000     0          
C610     C      0.785900000000     0.500000000000     0.747000000000     0          
H611     H      0.767600000000     0.500000000000     0.722200000000     0          
C612     C      0.938900000000     0.500000000000     0.786100000000     0          
C613     C      0.553100000000     0.500000000000     0.978000000000     0          
H614     H      0.587600000000     0.500000000000     0.963800000000     0          
Zr615    Zr     0.924910000000     0.000000000000     0.333990000000     0          
Zr616    Zr     0.924690000000     0.000000000000     0.229960000000     0          
O617     O      0.833900000000     0.000000000000     0.316900000000     0          
O618     O      0.831900000000     0.000000000000     0.247500000000     0          
O619     O      0.952200000000     0.000000000000     0.396300000000     0          
C620     C      0.807300000000     0.000000000000     0.282800000000     0          
C621     C      0.745400000000     0.000000000000     0.281400000000     0          
C622     C      0.713800000000     0.000000000000     0.317700000000     0          
H623     H      0.733900000000     0.000000000000     0.341800000000     0          
C624     C      0.653900000000     0.000000000000     0.318800000000     0          
H625     H      0.634100000000     0.000000000000     0.343100000000     0          
C626     C      0.625800000000     0.000000000000     0.283800000000     0          
C627     C      0.655200000000     0.000000000000     0.249500000000     0          
H628     H      0.634400000000     0.000000000000     0.225600000000     0          
C629     C      0.714100000000     0.000000000000     0.247000000000     0          
H630     H      0.732400000000     0.000000000000     0.222200000000     0          
C631     C      0.561100000000     0.000000000000     0.286100000000     0          
C632     C      0.946900000000     0.000000000000     0.478000000000     0          
H633     H      0.912400000000     0.000000000000     0.463800000000     0          
Zr634    Zr     0.424910000000     0.500000000000     0.833990000000     0          
Zr635    Zr     0.424690000000     0.500000000000     0.729960000000     0          
O636     O      0.333900000000     0.500000000000     0.816900000000     0          
O637     O      0.331900000000     0.500000000000     0.747500000000     0          
O638     O      0.452200000000     0.500000000000     0.896300000000     0          
C639     C      0.307300000000     0.500000000000     0.782800000000     0          
C640     C      0.245400000000     0.500000000000     0.781400000000     0          
C641     C      0.213800000000     0.500000000000     0.817700000000     0          
H642     H      0.233900000000     0.500000000000     0.841800000000     0          
C643     C      0.153900000000     0.500000000000     0.818800000000     0          
H644     H      0.134100000000     0.500000000000     0.843100000000     0          
C645     C      0.125800000000     0.500000000000     0.783800000000     0          
C646     C      0.155200000000     0.500000000000     0.749500000000     0          
H647     H      0.134400000000     0.500000000000     0.725600000000     0          
C648     C      0.214100000000     0.500000000000     0.747000000000     0          
H649     H      0.232400000000     0.500000000000     0.722200000000     0          
C650     C      0.061100000000     0.500000000000     0.786100000000     0          
C651     C      0.446900000000     0.500000000000     0.978000000000     0          
H652     H      0.412400000000     0.500000000000     0.963800000000     0          
Zr653    Zr     0.924910000000     0.000000000000     0.666010000000     0          
Zr654    Zr     0.924690000000     0.000000000000     0.770040000000     0          
O655     O      0.833900000000     0.000000000000     0.683100000000     0          
O656     O      0.831900000000     0.000000000000     0.752500000000     0          
O657     O      0.952200000000     0.000000000000     0.603700000000     0          
C658     C      0.807300000000     0.000000000000     0.717200000000     0          
C659     C      0.745400000000     0.000000000000     0.718600000000     0          
C660     C      0.713800000000     0.000000000000     0.682300000000     0          
H661     H      0.733900000000     0.000000000000     0.658200000000     0          
C662     C      0.653900000000     0.000000000000     0.681200000000     0          
H663     H      0.634100000000     0.000000000000     0.656900000000     0          
C664     C      0.625800000000     0.000000000000     0.716200000000     0          
C665     C      0.655200000000     0.000000000000     0.750500000000     0          
H666     H      0.634400000000     0.000000000000     0.774400000000     0          
C667     C      0.714100000000     0.000000000000     0.753000000000     0          
H668     H      0.732400000000     0.000000000000     0.777800000000     0          
C669     C      0.561100000000     0.000000000000     0.713900000000     0          
C670     C      0.946900000000     0.000000000000     0.522000000000     0          
H671     H      0.912400000000     0.000000000000     0.536200000000     0          
Zr672    Zr     0.424910000000     0.500000000000     0.166010000000     0          
Zr673    Zr     0.424690000000     0.500000000000     0.270040000000     0          
O674     O      0.333900000000     0.500000000000     0.183100000000     0          
O675     O      0.331900000000     0.500000000000     0.252500000000     0          
O676     O      0.452200000000     0.500000000000     0.103700000000     0          
C677     C      0.307300000000     0.500000000000     0.217200000000     0          
C678     C      0.245400000000     0.500000000000     0.218600000000     0          
C679     C      0.213800000000     0.500000000000     0.182300000000     0          
H680     H      0.233900000000     0.500000000000     0.158200000000     0          
C681     C      0.153900000000     0.500000000000     0.181200000000     0          
H682     H      0.134100000000     0.500000000000     0.156900000000     0          
C683     C      0.125800000000     0.500000000000     0.216200000000     0          
C684     C      0.155200000000     0.500000000000     0.250500000000     0          
H685     H      0.134400000000     0.500000000000     0.274400000000     0          
C686     C      0.214100000000     0.500000000000     0.253000000000     0          
H687     H      0.232400000000     0.500000000000     0.277800000000     0          
C688     C      0.061100000000     0.500000000000     0.213900000000     0          
C689     C      0.446900000000     0.500000000000     0.022000000000     0          
H690     H      0.412400000000     0.500000000000     0.036200000000     0          
Zr691    Zr     0.075090000000     0.000000000000     0.666010000000     0          
Zr692    Zr     0.075310000000     0.000000000000     0.770040000000     0          
O693     O      0.166100000000     0.000000000000     0.683100000000     0          
O694     O      0.168100000000     0.000000000000     0.752500000000     0          
O695     O      0.047800000000     0.000000000000     0.603700000000     0          
C696     C      0.192700000000     0.000000000000     0.717200000000     0          
C697     C      0.254600000000     0.000000000000     0.718600000000     0          
C698     C      0.286200000000     0.000000000000     0.682300000000     0          
H699     H      0.266100000000     0.000000000000     0.658200000000     0          
C700     C      0.346100000000     0.000000000000     0.681200000000     0          
H701     H      0.365900000000     0.000000000000     0.656900000000     0          
C702     C      0.374200000000     0.000000000000     0.716200000000     0          
C703     C      0.344800000000     0.000000000000     0.750500000000     0          
H704     H      0.365600000000     0.000000000000     0.774400000000     0          
C705     C      0.285900000000     0.000000000000     0.753000000000     0          
H706     H      0.267600000000     0.000000000000     0.777800000000     0          
C707     C      0.438900000000     0.000000000000     0.713900000000     0          
C708     C      0.053100000000     0.000000000000     0.522000000000     0          
H709     H      0.087600000000     0.000000000000     0.536200000000     0          
Zr710    Zr     0.575090000000     0.500000000000     0.166010000000     0          
Zr711    Zr     0.575310000000     0.500000000000     0.270040000000     0          
O712     O      0.666100000000     0.500000000000     0.183100000000     0          
O713     O      0.668100000000     0.500000000000     0.252500000000     0          
O714     O      0.547800000000     0.500000000000     0.103700000000     0          
C715     C      0.692700000000     0.500000000000     0.217200000000     0          
C716     C      0.754600000000     0.500000000000     0.218600000000     0          
C717     C      0.786200000000     0.500000000000     0.182300000000     0          
H718     H      0.766100000000     0.500000000000     0.158200000000     0          
C719     C      0.846100000000     0.500000000000     0.181200000000     0          
H720     H      0.865900000000     0.500000000000     0.156900000000     0          
C721     C      0.874200000000     0.500000000000     0.216200000000     0          
C722     C      0.844800000000     0.500000000000     0.250500000000     0          
H723     H      0.865600000000     0.500000000000     0.274400000000     0          
C724     C      0.785900000000     0.500000000000     0.253000000000     0          
H725     H      0.767600000000     0.500000000000     0.277800000000     0          
C726     C      0.938900000000     0.500000000000     0.213900000000     0          
C727     C      0.553100000000     0.500000000000     0.022000000000     0          
H728     H      0.587600000000     0.500000000000     0.036200000000     0          
Zr729    Zr     0.000000000000     0.080130000000     0.281550000000     0          
O730     O      0.000000000000     0.037600000000     0.330300000000     0          
O731     O      0.000000000000     0.043200000000     0.234100000000     0          
Zr732    Zr     0.500000000000     0.580130000000     0.781550000000     0          
O733     O      0.500000000000     0.537600000000     0.830300000000     0          
O734     O      0.500000000000     0.543200000000     0.734100000000     0          
Zr735    Zr     0.000000000000     0.919870000000     0.281550000000     0          
O736     O      0.000000000000     0.962400000000     0.330300000000     0          
O737     O      0.000000000000     0.956800000000     0.234100000000     0          
Zr738    Zr     0.500000000000     0.419870000000     0.781550000000     0          
O739     O      0.500000000000     0.462400000000     0.830300000000     0          
O740     O      0.500000000000     0.456800000000     0.734100000000     0          
Zr741    Zr     0.000000000000     0.080130000000     0.718450000000     0          
O742     O      0.000000000000     0.037600000000     0.669700000000     0          
O743     O      0.000000000000     0.043200000000     0.765900000000     0          
Zr744    Zr     0.500000000000     0.580130000000     0.218450000000     0          
O745     O      0.500000000000     0.537600000000     0.169700000000     0          
O746     O      0.500000000000     0.543200000000     0.265900000000     0          
Zr747    Zr     0.000000000000     0.919870000000     0.718450000000     0          
O748     O      0.000000000000     0.962400000000     0.669700000000     0          
O749     O      0.000000000000     0.956800000000     0.765900000000     0          
Zr750    Zr     0.500000000000     0.419870000000     0.218450000000     0          
O751     O      0.500000000000     0.462400000000     0.169700000000     0          
O752     O      0.500000000000     0.456800000000     0.265900000000     0          
N753     N      0.230800000000     0.215300000000     0.500000000000     0          
H754     H      0.206400000000     0.194400000000     0.500000000000     0          
N755     N      0.730800000000     0.715300000000     0.000000000000     0          
H756     H      0.706400000000     0.694400000000     0.000000000000     0          
N757     N      0.769200000000     0.784700000000     0.500000000000     0          
H758     H      0.793600000000     0.805600000000     0.500000000000     0          
N759     N      0.269200000000     0.284700000000     0.000000000000     0          
H760     H      0.293600000000     0.305600000000     0.000000000000     0          
N761     N      0.769200000000     0.215300000000     0.500000000000     0          
H762     H      0.793600000000     0.194400000000     0.500000000000     0          
N763     N      0.269200000000     0.715300000000     0.000000000000     0          
H764     H      0.293600000000     0.694400000000     0.000000000000     0          
N765     N      0.230800000000     0.784700000000     0.500000000000     0          
H766     H      0.206400000000     0.805600000000     0.500000000000     0          
N767     N      0.730800000000     0.284700000000     0.000000000000     0          
H768     H      0.706400000000     0.305600000000     0.000000000000     0          
C769     C      0.000000000000     0.000000000000     0.415300000000     0          
C770     C      0.000000000000     0.000000000000     0.457800000000     0          
C771     C      0.500000000000     0.500000000000     0.915300000000     0          
C772     C      0.500000000000     0.500000000000     0.957800000000     0          
C773     C      0.000000000000     0.000000000000     0.584700000000     0          
C774     C      0.000000000000     0.000000000000     0.542200000000     0          
C775     C      0.500000000000     0.500000000000     0.084700000000     0          
C776     C      0.500000000000     0.500000000000     0.042200000000     0          
H777     H      0.945870000000     0.551880000000     0.741160000000     0          
C778     C      0.938750000000     0.434710000000     0.828380000000     0          
H779     H      0.054720000000     0.441710000000     0.823630000000     0          
C780     C      0.060660000000     0.558880000000     0.736410000000     0          
H781     H      0.970350000000     0.408680000000     0.838320000000     0          
H782     H      0.904630000000     0.419860000000     0.808020000000     0          
H783     H      0.917070000000     0.449390000000     0.855860000000     0          
H784     H      0.036460000000     0.563140000000     0.706910000000     0          
H785     H      0.105910000000     0.546280000000     0.730070000000     0          
H786     H      0.063640000000     0.591240000000     0.752490000000     0          
H787     H      0.554130000000     0.948120000000     0.241160000000     0          
C788     C      0.440800000000     0.945100000000     0.763450000000     0          
H789     H      0.554130000000     0.948120000000     0.758840000000     0          
C790     C      0.440390000000     0.942390000000     0.236940000000     0          
H791     H      0.445280000000     0.058290000000     0.323630000000     0          
C792     C      0.559780000000     0.061310000000     0.671770000000     0          
H793     H      0.445280000000     0.058290000000     0.676370000000     0          
C794     C      0.560200000000     0.064020000000     0.327850000000     0          
H795     H      0.467150000000     0.914620000000     0.768760000000     0          
H796     H      0.397640000000     0.936170000000     0.749390000000     0          
H797     H      0.433090000000     0.962140000000     0.793270000000     0          
H798     H      0.538890000000     0.064980000000     0.641000000000     0          
H799     H      0.606300000000     0.050190000000     0.667990000000     0          
H800     H      0.559020000000     0.093630000000     0.688040000000     0          
H801     H      0.453460000000     0.908100000000     0.245180000000     0          
H802     H      0.451730000000     0.948850000000     0.204210000000     0          
H803     H      0.391980000000     0.946430000000     0.241410000000     0          
H804     H      0.585440000000     0.084930000000     0.305890000000     0          
H805     H      0.591260000000     0.048310000000     0.349950000000     0          
H806     H      0.528080000000     0.084910000000     0.344940000000     0          
H807     H      0.945870000000     0.448120000000     0.258840000000     0          
C808     C      0.940590000000     0.563290000000     0.174780000000     0          
H809     H      0.054720000000     0.558290000000     0.176370000000     0          
C810     C      0.058830000000     0.443120000000     0.260430000000     0          
H811     H      0.892550000000     0.555580000000     0.175240000000     0          
H812     H      0.955950000000     0.565900000000     0.142380000000     0          
H813     H      0.948510000000     0.595180000000     0.190860000000     0          
H814     H      0.097440000000     0.430720000000     0.242710000000     0          
H815     H      0.029230000000     0.415010000000     0.268220000000     0          
H816     H      0.074460000000     0.459140000000     0.289230000000     0          


