data_NIKVEL

_audit_creation_method RASPA-1.0
_audit_creation_date 2020-11-2
_audit_author_name 'Rocio Bueno-Perez'

_cell_length_a    38.2803
_cell_length_b    38.2803
_cell_length_c    38.2803
_cell_angle_alpha 90
_cell_angle_beta  90
_cell_angle_gamma 90
_cell_volume      56095.2

_symmetry_cell_setting          triclinic
_symmetry_space_group_name_Hall 'P 1'
_symmetry_space_group_name_H-M  'P 1'
_symmetry_Int_Tables_number     1

_symmetry_equiv_pos_as_xyz 'x,y,z'

loop_
_atom_site_label
_atom_site_type_symbol
_atom_site_fract_x
_atom_site_fract_y
_atom_site_fract_z
_atom_site_charge
O1       O      0.164080000000     0.255530000000     0.052670000000     0          
O2       O      0.203800000000     0.157900000000     0.031030000000     0          
C3       C      0.227070000000     0.147630000000     0.051130000000     0          
C4       C      0.215610000000     0.116620000000     0.073950000000     0          
N5       N      0.185810000000     0.099270000000     0.074840000000     0          
O6       O      0.164080000000     0.755530000000     0.552670000000     0          
O7       O      0.203800000000     0.657900000000     0.531030000000     0          
C8       C      0.227070000000     0.647630000000     0.551130000000     0          
C9       C      0.215610000000     0.616620000000     0.573950000000     0          
N10      N      0.185810000000     0.599270000000     0.574840000000     0          
O11      O      0.664080000000     0.255530000000     0.552670000000     0          
O12      O      0.703800000000     0.157900000000     0.531030000000     0          
C13      C      0.727070000000     0.147630000000     0.551130000000     0          
C14      C      0.715610000000     0.116620000000     0.573950000000     0          
N15      N      0.685810000000     0.099270000000     0.574840000000     0          
O16      O      0.664080000000     0.755530000000     0.052670000000     0          
O17      O      0.703800000000     0.657900000000     0.031030000000     0          
C18      C      0.727070000000     0.647630000000     0.051130000000     0          
C19      C      0.715610000000     0.616620000000     0.073950000000     0          
N20      N      0.685810000000     0.599270000000     0.074840000000     0          
O21      O      0.835920000000     0.744470000000     0.052670000000     0          
O22      O      0.796200000000     0.842100000000     0.031030000000     0          
C23      C      0.772930000000     0.852370000000     0.051130000000     0          
C24      C      0.784390000000     0.883380000000     0.073950000000     0          
N25      N      0.814190000000     0.900730000000     0.074840000000     0          
O26      O      0.835920000000     0.244470000000     0.552670000000     0          
O27      O      0.796200000000     0.342100000000     0.531030000000     0          
C28      C      0.772930000000     0.352370000000     0.551130000000     0          
C29      C      0.784390000000     0.383380000000     0.573950000000     0          
N30      N      0.814190000000     0.400730000000     0.574840000000     0          
O31      O      0.335920000000     0.744470000000     0.552670000000     0          
O32      O      0.296200000000     0.842100000000     0.531030000000     0          
C33      C      0.272930000000     0.852370000000     0.551130000000     0          
C34      C      0.284390000000     0.883380000000     0.573950000000     0          
N35      N      0.314190000000     0.900730000000     0.574840000000     0          
O36      O      0.335920000000     0.244470000000     0.052670000000     0          
O37      O      0.296200000000     0.342100000000     0.031030000000     0          
C38      C      0.272930000000     0.352370000000     0.051130000000     0          
C39      C      0.284390000000     0.383380000000     0.073950000000     0          
N40      N      0.314190000000     0.400730000000     0.074840000000     0          
O41      O      0.835920000000     0.255530000000     0.947330000000     0          
O42      O      0.796200000000     0.157900000000     0.968970000000     0          
C43      C      0.772930000000     0.147630000000     0.948870000000     0          
C44      C      0.784390000000     0.116620000000     0.926050000000     0          
N45      N      0.814190000000     0.099270000000     0.925160000000     0          
O46      O      0.835920000000     0.755530000000     0.447330000000     0          
O47      O      0.796200000000     0.657900000000     0.468970000000     0          
C48      C      0.772930000000     0.647630000000     0.448870000000     0          
C49      C      0.784390000000     0.616620000000     0.426050000000     0          
N50      N      0.814190000000     0.599270000000     0.425160000000     0          
O51      O      0.335920000000     0.255530000000     0.447330000000     0          
O52      O      0.296200000000     0.157900000000     0.468970000000     0          
C53      C      0.272930000000     0.147630000000     0.448870000000     0          
C54      C      0.284390000000     0.116620000000     0.426050000000     0          
N55      N      0.314190000000     0.099270000000     0.425160000000     0          
O56      O      0.335920000000     0.755530000000     0.947330000000     0          
O57      O      0.296200000000     0.657900000000     0.968970000000     0          
C58      C      0.272930000000     0.647630000000     0.948870000000     0          
C59      C      0.284390000000     0.616620000000     0.926050000000     0          
N60      N      0.314190000000     0.599270000000     0.925160000000     0          
O61      O      0.164080000000     0.744470000000     0.947330000000     0          
O62      O      0.203800000000     0.842100000000     0.968970000000     0          
C63      C      0.227070000000     0.852370000000     0.948870000000     0          
C64      C      0.215610000000     0.883380000000     0.926050000000     0          
N65      N      0.185810000000     0.900730000000     0.925160000000     0          
O66      O      0.164080000000     0.244470000000     0.447330000000     0          
O67      O      0.203800000000     0.342100000000     0.468970000000     0          
C68      C      0.227070000000     0.352370000000     0.448870000000     0          
C69      C      0.215610000000     0.383380000000     0.426050000000     0          
N70      N      0.185810000000     0.400730000000     0.425160000000     0          
O71      O      0.664080000000     0.744470000000     0.447330000000     0          
O72      O      0.703800000000     0.842100000000     0.468970000000     0          
C73      C      0.727070000000     0.852370000000     0.448870000000     0          
C74      C      0.715610000000     0.883380000000     0.426050000000     0          
N75      N      0.685810000000     0.900730000000     0.425160000000     0          
O76      O      0.664080000000     0.244470000000     0.947330000000     0          
O77      O      0.703800000000     0.342100000000     0.968970000000     0          
C78      C      0.727070000000     0.352370000000     0.948870000000     0          
C79      C      0.715610000000     0.383380000000     0.926050000000     0          
N80      N      0.685810000000     0.400730000000     0.925160000000     0          
O81      O      0.052670000000     0.164080000000     0.255530000000     0          
O82      O      0.031030000000     0.203800000000     0.157900000000     0          
C83      C      0.051130000000     0.227070000000     0.147630000000     0          
C84      C      0.073950000000     0.215610000000     0.116620000000     0          
N85      N      0.074840000000     0.185810000000     0.099270000000     0          
O86      O      0.052670000000     0.664080000000     0.755530000000     0          
O87      O      0.031030000000     0.703800000000     0.657900000000     0          
C88      C      0.051130000000     0.727070000000     0.647630000000     0          
C89      C      0.073950000000     0.715610000000     0.616620000000     0          
N90      N      0.074840000000     0.685810000000     0.599270000000     0          
O91      O      0.552670000000     0.164080000000     0.755530000000     0          
O92      O      0.531030000000     0.203800000000     0.657900000000     0          
C93      C      0.551130000000     0.227070000000     0.647630000000     0          
C94      C      0.573950000000     0.215610000000     0.616620000000     0          
N95      N      0.574840000000     0.185810000000     0.599270000000     0          
O96      O      0.552670000000     0.664080000000     0.255530000000     0          
O97      O      0.531030000000     0.703800000000     0.157900000000     0          
C98      C      0.551130000000     0.727070000000     0.147630000000     0          
C99      C      0.573950000000     0.715610000000     0.116620000000     0          
N100     N      0.574840000000     0.685810000000     0.099270000000     0          
O101     O      0.052670000000     0.835920000000     0.744470000000     0          
O102     O      0.031030000000     0.796200000000     0.842100000000     0          
C103     C      0.051130000000     0.772930000000     0.852370000000     0          
C104     C      0.073950000000     0.784390000000     0.883380000000     0          
N105     N      0.074840000000     0.814190000000     0.900730000000     0          
O106     O      0.052670000000     0.335920000000     0.244470000000     0          
O107     O      0.031030000000     0.296200000000     0.342100000000     0          
C108     C      0.051130000000     0.272930000000     0.352370000000     0          
C109     C      0.073950000000     0.284390000000     0.383380000000     0          
N110     N      0.074840000000     0.314190000000     0.400730000000     0          
O111     O      0.552670000000     0.835920000000     0.244470000000     0          
O112     O      0.531030000000     0.796200000000     0.342100000000     0          
C113     C      0.551130000000     0.772930000000     0.352370000000     0          
C114     C      0.573950000000     0.784390000000     0.383380000000     0          
N115     N      0.574840000000     0.814190000000     0.400730000000     0          
O116     O      0.552670000000     0.335920000000     0.744470000000     0          
O117     O      0.531030000000     0.296200000000     0.842100000000     0          
C118     C      0.551130000000     0.272930000000     0.852370000000     0          
C119     C      0.573950000000     0.284390000000     0.883380000000     0          
N120     N      0.574840000000     0.314190000000     0.900730000000     0          
O121     O      0.947330000000     0.835920000000     0.255530000000     0          
O122     O      0.968970000000     0.796200000000     0.157900000000     0          
C123     C      0.948870000000     0.772930000000     0.147630000000     0          
C124     C      0.926050000000     0.784390000000     0.116620000000     0          
N125     N      0.925160000000     0.814190000000     0.099270000000     0          
O126     O      0.947330000000     0.335920000000     0.755530000000     0          
O127     O      0.968970000000     0.296200000000     0.657900000000     0          
C128     C      0.948870000000     0.272930000000     0.647630000000     0          
C129     C      0.926050000000     0.284390000000     0.616620000000     0          
N130     N      0.925160000000     0.314190000000     0.599270000000     0          
O131     O      0.447330000000     0.835920000000     0.755530000000     0          
O132     O      0.468970000000     0.796200000000     0.657900000000     0          
C133     C      0.448870000000     0.772930000000     0.647630000000     0          
C134     C      0.426050000000     0.784390000000     0.616620000000     0          
N135     N      0.425160000000     0.814190000000     0.599270000000     0          
O136     O      0.447330000000     0.335920000000     0.255530000000     0          
O137     O      0.468970000000     0.296200000000     0.157900000000     0          
C138     C      0.448870000000     0.272930000000     0.147630000000     0          
C139     C      0.426050000000     0.284390000000     0.116620000000     0          
N140     N      0.425160000000     0.314190000000     0.099270000000     0          
O141     O      0.947330000000     0.164080000000     0.744470000000     0          
O142     O      0.968970000000     0.203800000000     0.842100000000     0          
C143     C      0.948870000000     0.227070000000     0.852370000000     0          
C144     C      0.926050000000     0.215610000000     0.883380000000     0          
N145     N      0.925160000000     0.185810000000     0.900730000000     0          
O146     O      0.947330000000     0.664080000000     0.244470000000     0          
O147     O      0.968970000000     0.703800000000     0.342100000000     0          
C148     C      0.948870000000     0.727070000000     0.352370000000     0          
C149     C      0.926050000000     0.715610000000     0.383380000000     0          
N150     N      0.925160000000     0.685810000000     0.400730000000     0          
O151     O      0.447330000000     0.164080000000     0.244470000000     0          
O152     O      0.468970000000     0.203800000000     0.342100000000     0          
C153     C      0.448870000000     0.227070000000     0.352370000000     0          
C154     C      0.426050000000     0.215610000000     0.383380000000     0          
N155     N      0.425160000000     0.185810000000     0.400730000000     0          
O156     O      0.447330000000     0.664080000000     0.744470000000     0          
O157     O      0.468970000000     0.703800000000     0.842100000000     0          
C158     C      0.448870000000     0.727070000000     0.852370000000     0          
C159     C      0.426050000000     0.715610000000     0.883380000000     0          
N160     N      0.425160000000     0.685810000000     0.900730000000     0          
O161     O      0.255530000000     0.052670000000     0.164080000000     0          
O162     O      0.157900000000     0.031030000000     0.203800000000     0          
C163     C      0.147630000000     0.051130000000     0.227070000000     0          
C164     C      0.116620000000     0.073950000000     0.215610000000     0          
N165     N      0.099270000000     0.074840000000     0.185810000000     0          
O166     O      0.255530000000     0.552670000000     0.664080000000     0          
O167     O      0.157900000000     0.531030000000     0.703800000000     0          
C168     C      0.147630000000     0.551130000000     0.727070000000     0          
C169     C      0.116620000000     0.573950000000     0.715610000000     0          
N170     N      0.099270000000     0.574840000000     0.685810000000     0          
O171     O      0.755530000000     0.052670000000     0.664080000000     0          
O172     O      0.657900000000     0.031030000000     0.703800000000     0          
C173     C      0.647630000000     0.051130000000     0.727070000000     0          
C174     C      0.616620000000     0.073950000000     0.715610000000     0          
N175     N      0.599270000000     0.074840000000     0.685810000000     0          
O176     O      0.755530000000     0.552670000000     0.164080000000     0          
O177     O      0.657900000000     0.531030000000     0.203800000000     0          
C178     C      0.647630000000     0.551130000000     0.227070000000     0          
C179     C      0.616620000000     0.573950000000     0.215610000000     0          
N180     N      0.599270000000     0.574840000000     0.185810000000     0          
O181     O      0.744470000000     0.052670000000     0.835920000000     0          
O182     O      0.842100000000     0.031030000000     0.796200000000     0          
C183     C      0.852370000000     0.051130000000     0.772930000000     0          
C184     C      0.883380000000     0.073950000000     0.784390000000     0          
N185     N      0.900730000000     0.074840000000     0.814190000000     0          
O186     O      0.744470000000     0.552670000000     0.335920000000     0          
O187     O      0.842100000000     0.531030000000     0.296200000000     0          
C188     C      0.852370000000     0.551130000000     0.272930000000     0          
C189     C      0.883380000000     0.573950000000     0.284390000000     0          
N190     N      0.900730000000     0.574840000000     0.314190000000     0          
O191     O      0.244470000000     0.052670000000     0.335920000000     0          
O192     O      0.342100000000     0.031030000000     0.296200000000     0          
C193     C      0.352370000000     0.051130000000     0.272930000000     0          
C194     C      0.383380000000     0.073950000000     0.284390000000     0          
N195     N      0.400730000000     0.074840000000     0.314190000000     0          
O196     O      0.244470000000     0.552670000000     0.835920000000     0          
O197     O      0.342100000000     0.531030000000     0.796200000000     0          
C198     C      0.352370000000     0.551130000000     0.772930000000     0          
C199     C      0.383380000000     0.573950000000     0.784390000000     0          
N200     N      0.400730000000     0.574840000000     0.814190000000     0          
O201     O      0.255530000000     0.947330000000     0.835920000000     0          
O202     O      0.157900000000     0.968970000000     0.796200000000     0          
C203     C      0.147630000000     0.948870000000     0.772930000000     0          
C204     C      0.116620000000     0.926050000000     0.784390000000     0          
N205     N      0.099270000000     0.925160000000     0.814190000000     0          
O206     O      0.255530000000     0.447330000000     0.335920000000     0          
O207     O      0.157900000000     0.468970000000     0.296200000000     0          
C208     C      0.147630000000     0.448870000000     0.272930000000     0          
C209     C      0.116620000000     0.426050000000     0.284390000000     0          
N210     N      0.099270000000     0.425160000000     0.314190000000     0          
O211     O      0.755530000000     0.947330000000     0.335920000000     0          
O212     O      0.657900000000     0.968970000000     0.296200000000     0          
C213     C      0.647630000000     0.948870000000     0.272930000000     0          
C214     C      0.616620000000     0.926050000000     0.284390000000     0          
N215     N      0.599270000000     0.925160000000     0.314190000000     0          
O216     O      0.755530000000     0.447330000000     0.835920000000     0          
O217     O      0.657900000000     0.468970000000     0.796200000000     0          
C218     C      0.647630000000     0.448870000000     0.772930000000     0          
C219     C      0.616620000000     0.426050000000     0.784390000000     0          
N220     N      0.599270000000     0.425160000000     0.814190000000     0          
O221     O      0.744470000000     0.947330000000     0.164080000000     0          
O222     O      0.842100000000     0.968970000000     0.203800000000     0          
C223     C      0.852370000000     0.948870000000     0.227070000000     0          
C224     C      0.883380000000     0.926050000000     0.215610000000     0          
N225     N      0.900730000000     0.925160000000     0.185810000000     0          
O226     O      0.744470000000     0.447330000000     0.664080000000     0          
O227     O      0.842100000000     0.468970000000     0.703800000000     0          
C228     C      0.852370000000     0.448870000000     0.727070000000     0          
C229     C      0.883380000000     0.426050000000     0.715610000000     0          
N230     N      0.900730000000     0.425160000000     0.685810000000     0          
O231     O      0.244470000000     0.947330000000     0.664080000000     0          
O232     O      0.342100000000     0.968970000000     0.703800000000     0          
C233     C      0.352370000000     0.948870000000     0.727070000000     0          
C234     C      0.383380000000     0.926050000000     0.715610000000     0          
N235     N      0.400730000000     0.925160000000     0.685810000000     0          
O236     O      0.244470000000     0.447330000000     0.164080000000     0          
O237     O      0.342100000000     0.468970000000     0.203800000000     0          
C238     C      0.352370000000     0.448870000000     0.227070000000     0          
C239     C      0.383380000000     0.426050000000     0.215610000000     0          
N240     N      0.400730000000     0.425160000000     0.185810000000     0          
O241     O      0.255530000000     0.164080000000     0.947330000000     0          
O242     O      0.157900000000     0.203800000000     0.968970000000     0          
C243     C      0.147630000000     0.227070000000     0.948870000000     0          
C244     C      0.116620000000     0.215610000000     0.926050000000     0          
N245     N      0.099270000000     0.185810000000     0.925160000000     0          
O246     O      0.255530000000     0.664080000000     0.447330000000     0          
O247     O      0.157900000000     0.703800000000     0.468970000000     0          
C248     C      0.147630000000     0.727070000000     0.448870000000     0          
C249     C      0.116620000000     0.715610000000     0.426050000000     0          
N250     N      0.099270000000     0.685810000000     0.425160000000     0          
O251     O      0.755530000000     0.164080000000     0.447330000000     0          
O252     O      0.657900000000     0.203800000000     0.468970000000     0          
C253     C      0.647630000000     0.227070000000     0.448870000000     0          
C254     C      0.616620000000     0.215610000000     0.426050000000     0          
N255     N      0.599270000000     0.185810000000     0.425160000000     0          
O256     O      0.755530000000     0.664080000000     0.947330000000     0          
O257     O      0.657900000000     0.703800000000     0.968970000000     0          
C258     C      0.647630000000     0.727070000000     0.948870000000     0          
C259     C      0.616620000000     0.715610000000     0.926050000000     0          
N260     N      0.599270000000     0.685810000000     0.925160000000     0          
O261     O      0.744470000000     0.835920000000     0.947330000000     0          
O262     O      0.842100000000     0.796200000000     0.968970000000     0          
C263     C      0.852370000000     0.772930000000     0.948870000000     0          
C264     C      0.883380000000     0.784390000000     0.926050000000     0          
N265     N      0.900730000000     0.814190000000     0.925160000000     0          
O266     O      0.744470000000     0.335920000000     0.447330000000     0          
O267     O      0.842100000000     0.296200000000     0.468970000000     0          
C268     C      0.852370000000     0.272930000000     0.448870000000     0          
C269     C      0.883380000000     0.284390000000     0.426050000000     0          
N270     N      0.900730000000     0.314190000000     0.425160000000     0          
O271     O      0.244470000000     0.835920000000     0.447330000000     0          
O272     O      0.342100000000     0.796200000000     0.468970000000     0          
C273     C      0.352370000000     0.772930000000     0.448870000000     0          
C274     C      0.383380000000     0.784390000000     0.426050000000     0          
N275     N      0.400730000000     0.814190000000     0.425160000000     0          
O276     O      0.244470000000     0.335920000000     0.947330000000     0          
O277     O      0.342100000000     0.296200000000     0.968970000000     0          
C278     C      0.352370000000     0.272930000000     0.948870000000     0          
C279     C      0.383380000000     0.284390000000     0.926050000000     0          
N280     N      0.400730000000     0.314190000000     0.925160000000     0          
O281     O      0.255530000000     0.835920000000     0.052670000000     0          
O282     O      0.157900000000     0.796200000000     0.031030000000     0          
C283     C      0.147630000000     0.772930000000     0.051130000000     0          
C284     C      0.116620000000     0.784390000000     0.073950000000     0          
N285     N      0.099270000000     0.814190000000     0.074840000000     0          
O286     O      0.255530000000     0.335920000000     0.552670000000     0          
O287     O      0.157900000000     0.296200000000     0.531030000000     0          
C288     C      0.147630000000     0.272930000000     0.551130000000     0          
C289     C      0.116620000000     0.284390000000     0.573950000000     0          
N290     N      0.099270000000     0.314190000000     0.574840000000     0          
O291     O      0.755530000000     0.835920000000     0.552670000000     0          
O292     O      0.657900000000     0.796200000000     0.531030000000     0          
C293     C      0.647630000000     0.772930000000     0.551130000000     0          
C294     C      0.616620000000     0.784390000000     0.573950000000     0          
N295     N      0.599270000000     0.814190000000     0.574840000000     0          
O296     O      0.755530000000     0.335920000000     0.052670000000     0          
O297     O      0.657900000000     0.296200000000     0.031030000000     0          
C298     C      0.647630000000     0.272930000000     0.051130000000     0          
C299     C      0.616620000000     0.284390000000     0.073950000000     0          
N300     N      0.599270000000     0.314190000000     0.074840000000     0          
O301     O      0.744470000000     0.164080000000     0.052670000000     0          
O302     O      0.842100000000     0.203800000000     0.031030000000     0          
C303     C      0.852370000000     0.227070000000     0.051130000000     0          
C304     C      0.883380000000     0.215610000000     0.073950000000     0          
N305     N      0.900730000000     0.185810000000     0.074840000000     0          
O306     O      0.744470000000     0.664080000000     0.552670000000     0          
O307     O      0.842100000000     0.703800000000     0.531030000000     0          
C308     C      0.852370000000     0.727070000000     0.551130000000     0          
C309     C      0.883380000000     0.715610000000     0.573950000000     0          
N310     N      0.900730000000     0.685810000000     0.574840000000     0          
O311     O      0.244470000000     0.164080000000     0.552670000000     0          
O312     O      0.342100000000     0.203800000000     0.531030000000     0          
C313     C      0.352370000000     0.227070000000     0.551130000000     0          
C314     C      0.383380000000     0.215610000000     0.573950000000     0          
N315     N      0.400730000000     0.185810000000     0.574840000000     0          
O316     O      0.244470000000     0.664080000000     0.052670000000     0          
O317     O      0.342100000000     0.703800000000     0.031030000000     0          
C318     C      0.352370000000     0.727070000000     0.051130000000     0          
C319     C      0.383380000000     0.715610000000     0.073950000000     0          
N320     N      0.400730000000     0.685810000000     0.074840000000     0          
O321     O      0.164080000000     0.052670000000     0.744470000000     0          
O322     O      0.203800000000     0.031030000000     0.842100000000     0          
C323     C      0.227070000000     0.051130000000     0.852370000000     0          
C324     C      0.215610000000     0.073950000000     0.883380000000     0          
N325     N      0.185810000000     0.074840000000     0.900730000000     0          
O326     O      0.164080000000     0.552670000000     0.244470000000     0          
O327     O      0.203800000000     0.531030000000     0.342100000000     0          
C328     C      0.227070000000     0.551130000000     0.352370000000     0          
C329     C      0.215610000000     0.573950000000     0.383380000000     0          
N330     N      0.185810000000     0.574840000000     0.400730000000     0          
O331     O      0.664080000000     0.052670000000     0.244470000000     0          
O332     O      0.703800000000     0.031030000000     0.342100000000     0          
C333     C      0.727070000000     0.051130000000     0.352370000000     0          
C334     C      0.715610000000     0.073950000000     0.383380000000     0          
N335     N      0.685810000000     0.074840000000     0.400730000000     0          
O336     O      0.664080000000     0.552670000000     0.744470000000     0          
O337     O      0.703800000000     0.531030000000     0.842100000000     0          
C338     C      0.727070000000     0.551130000000     0.852370000000     0          
C339     C      0.715610000000     0.573950000000     0.883380000000     0          
N340     N      0.685810000000     0.574840000000     0.900730000000     0          
O341     O      0.835920000000     0.052670000000     0.255530000000     0          
O342     O      0.796200000000     0.031030000000     0.157900000000     0          
C343     C      0.772930000000     0.051130000000     0.147630000000     0          
C344     C      0.784390000000     0.073950000000     0.116620000000     0          
N345     N      0.814190000000     0.074840000000     0.099270000000     0          
O346     O      0.835920000000     0.552670000000     0.755530000000     0          
O347     O      0.796200000000     0.531030000000     0.657900000000     0          
C348     C      0.772930000000     0.551130000000     0.647630000000     0          
C349     C      0.784390000000     0.573950000000     0.616620000000     0          
N350     N      0.814190000000     0.574840000000     0.599270000000     0          
O351     O      0.335920000000     0.052670000000     0.755530000000     0          
O352     O      0.296200000000     0.031030000000     0.657900000000     0          
C353     C      0.272930000000     0.051130000000     0.647630000000     0          
C354     C      0.284390000000     0.073950000000     0.616620000000     0          
N355     N      0.314190000000     0.074840000000     0.599270000000     0          
O356     O      0.335920000000     0.552670000000     0.255530000000     0          
O357     O      0.296200000000     0.531030000000     0.157900000000     0          
C358     C      0.272930000000     0.551130000000     0.147630000000     0          
C359     C      0.284390000000     0.573950000000     0.116620000000     0          
N360     N      0.314190000000     0.574840000000     0.099270000000     0          
O361     O      0.835920000000     0.947330000000     0.744470000000     0          
O362     O      0.796200000000     0.968970000000     0.842100000000     0          
C363     C      0.772930000000     0.948870000000     0.852370000000     0          
C364     C      0.784390000000     0.926050000000     0.883380000000     0          
N365     N      0.814190000000     0.925160000000     0.900730000000     0          
O366     O      0.835920000000     0.447330000000     0.244470000000     0          
O367     O      0.796200000000     0.468970000000     0.342100000000     0          
C368     C      0.772930000000     0.448870000000     0.352370000000     0          
C369     C      0.784390000000     0.426050000000     0.383380000000     0          
N370     N      0.814190000000     0.425160000000     0.400730000000     0          
O371     O      0.335920000000     0.947330000000     0.244470000000     0          
O372     O      0.296200000000     0.968970000000     0.342100000000     0          
C373     C      0.272930000000     0.948870000000     0.352370000000     0          
C374     C      0.284390000000     0.926050000000     0.383380000000     0          
N375     N      0.314190000000     0.925160000000     0.400730000000     0          
O376     O      0.335920000000     0.447330000000     0.744470000000     0          
O377     O      0.296200000000     0.468970000000     0.842100000000     0          
C378     C      0.272930000000     0.448870000000     0.852370000000     0          
C379     C      0.284390000000     0.426050000000     0.883380000000     0          
N380     N      0.314190000000     0.425160000000     0.900730000000     0          
O381     O      0.164080000000     0.947330000000     0.255530000000     0          
O382     O      0.203800000000     0.968970000000     0.157900000000     0          
C383     C      0.227070000000     0.948870000000     0.147630000000     0          
C384     C      0.215610000000     0.926050000000     0.116620000000     0          
N385     N      0.185810000000     0.925160000000     0.099270000000     0          
O386     O      0.164080000000     0.447330000000     0.755530000000     0          
O387     O      0.203800000000     0.468970000000     0.657900000000     0          
C388     C      0.227070000000     0.448870000000     0.647630000000     0          
C389     C      0.215610000000     0.426050000000     0.616620000000     0          
N390     N      0.185810000000     0.425160000000     0.599270000000     0          
O391     O      0.664080000000     0.947330000000     0.755530000000     0          
O392     O      0.703800000000     0.968970000000     0.657900000000     0          
C393     C      0.727070000000     0.948870000000     0.647630000000     0          
C394     C      0.715610000000     0.926050000000     0.616620000000     0          
N395     N      0.685810000000     0.925160000000     0.599270000000     0          
O396     O      0.664080000000     0.447330000000     0.255530000000     0          
O397     O      0.703800000000     0.468970000000     0.157900000000     0          
C398     C      0.727070000000     0.448870000000     0.147630000000     0          
C399     C      0.715610000000     0.426050000000     0.116620000000     0          
N400     N      0.685810000000     0.425160000000     0.099270000000     0          
O401     O      0.052670000000     0.255530000000     0.835920000000     0          
O402     O      0.031030000000     0.157900000000     0.796200000000     0          
C403     C      0.051130000000     0.147630000000     0.772930000000     0          
C404     C      0.073950000000     0.116620000000     0.784390000000     0          
N405     N      0.074840000000     0.099270000000     0.814190000000     0          
O406     O      0.052670000000     0.755530000000     0.335920000000     0          
O407     O      0.031030000000     0.657900000000     0.296200000000     0          
C408     C      0.051130000000     0.647630000000     0.272930000000     0          
C409     C      0.073950000000     0.616620000000     0.284390000000     0          
N410     N      0.074840000000     0.599270000000     0.314190000000     0          
O411     O      0.552670000000     0.255530000000     0.335920000000     0          
O412     O      0.531030000000     0.157900000000     0.296200000000     0          
C413     C      0.551130000000     0.147630000000     0.272930000000     0          
C414     C      0.573950000000     0.116620000000     0.284390000000     0          
N415     N      0.574840000000     0.099270000000     0.314190000000     0          
O416     O      0.552670000000     0.755530000000     0.835920000000     0          
O417     O      0.531030000000     0.657900000000     0.796200000000     0          
C418     C      0.551130000000     0.647630000000     0.772930000000     0          
C419     C      0.573950000000     0.616620000000     0.784390000000     0          
N420     N      0.574840000000     0.599270000000     0.814190000000     0          
O421     O      0.052670000000     0.744470000000     0.164080000000     0          
O422     O      0.031030000000     0.842100000000     0.203800000000     0          
C423     C      0.051130000000     0.852370000000     0.227070000000     0          
C424     C      0.073950000000     0.883380000000     0.215610000000     0          
N425     N      0.074840000000     0.900730000000     0.185810000000     0          
O426     O      0.052670000000     0.244470000000     0.664080000000     0          
O427     O      0.031030000000     0.342100000000     0.703800000000     0          
C428     C      0.051130000000     0.352370000000     0.727070000000     0          
C429     C      0.073950000000     0.383380000000     0.715610000000     0          
N430     N      0.074840000000     0.400730000000     0.685810000000     0          
O431     O      0.552670000000     0.744470000000     0.664080000000     0          
O432     O      0.531030000000     0.842100000000     0.703800000000     0          
C433     C      0.551130000000     0.852370000000     0.727070000000     0          
C434     C      0.573950000000     0.883380000000     0.715610000000     0          
N435     N      0.574840000000     0.900730000000     0.685810000000     0          
O436     O      0.552670000000     0.244470000000     0.164080000000     0          
O437     O      0.531030000000     0.342100000000     0.203800000000     0          
C438     C      0.551130000000     0.352370000000     0.227070000000     0          
C439     C      0.573950000000     0.383380000000     0.215610000000     0          
N440     N      0.574840000000     0.400730000000     0.185810000000     0          
O441     O      0.947330000000     0.255530000000     0.164080000000     0          
O442     O      0.968970000000     0.157900000000     0.203800000000     0          
C443     C      0.948870000000     0.147630000000     0.227070000000     0          
C444     C      0.926050000000     0.116620000000     0.215610000000     0          
N445     N      0.925160000000     0.099270000000     0.185810000000     0          
O446     O      0.947330000000     0.755530000000     0.664080000000     0          
O447     O      0.968970000000     0.657900000000     0.703800000000     0          
C448     C      0.948870000000     0.647630000000     0.727070000000     0          
C449     C      0.926050000000     0.616620000000     0.715610000000     0          
N450     N      0.925160000000     0.599270000000     0.685810000000     0          
O451     O      0.447330000000     0.255530000000     0.664080000000     0          
O452     O      0.468970000000     0.157900000000     0.703800000000     0          
C453     C      0.448870000000     0.147630000000     0.727070000000     0          
C454     C      0.426050000000     0.116620000000     0.715610000000     0          
N455     N      0.425160000000     0.099270000000     0.685810000000     0          
O456     O      0.447330000000     0.755530000000     0.164080000000     0          
O457     O      0.468970000000     0.657900000000     0.203800000000     0          
C458     C      0.448870000000     0.647630000000     0.227070000000     0          
C459     C      0.426050000000     0.616620000000     0.215610000000     0          
N460     N      0.425160000000     0.599270000000     0.185810000000     0          
O461     O      0.947330000000     0.744470000000     0.835920000000     0          
O462     O      0.968970000000     0.842100000000     0.796200000000     0          
C463     C      0.948870000000     0.852370000000     0.772930000000     0          
C464     C      0.926050000000     0.883380000000     0.784390000000     0          
N465     N      0.925160000000     0.900730000000     0.814190000000     0          
O466     O      0.947330000000     0.244470000000     0.335920000000     0          
O467     O      0.968970000000     0.342100000000     0.296200000000     0          
C468     C      0.948870000000     0.352370000000     0.272930000000     0          
C469     C      0.926050000000     0.383380000000     0.284390000000     0          
N470     N      0.925160000000     0.400730000000     0.314190000000     0          
O471     O      0.447330000000     0.744470000000     0.335920000000     0          
O472     O      0.468970000000     0.842100000000     0.296200000000     0          
C473     C      0.448870000000     0.852370000000     0.272930000000     0          
C474     C      0.426050000000     0.883380000000     0.284390000000     0          
N475     N      0.425160000000     0.900730000000     0.314190000000     0          
O476     O      0.447330000000     0.244470000000     0.835920000000     0          
O477     O      0.468970000000     0.342100000000     0.796200000000     0          
C478     C      0.448870000000     0.352370000000     0.772930000000     0          
C479     C      0.426050000000     0.383380000000     0.784390000000     0          
N480     N      0.425160000000     0.400730000000     0.814190000000     0          
O481     O      0.835920000000     0.744470000000     0.947330000000     0          
O482     O      0.796200000000     0.842100000000     0.968970000000     0          
C483     C      0.772930000000     0.852370000000     0.948870000000     0          
C484     C      0.784390000000     0.883380000000     0.926050000000     0          
N485     N      0.814190000000     0.900730000000     0.925160000000     0          
O486     O      0.835920000000     0.244470000000     0.447330000000     0          
O487     O      0.796200000000     0.342100000000     0.468970000000     0          
C488     C      0.772930000000     0.352370000000     0.448870000000     0          
C489     C      0.784390000000     0.383380000000     0.426050000000     0          
N490     N      0.814190000000     0.400730000000     0.425160000000     0          
O491     O      0.335920000000     0.744470000000     0.447330000000     0          
O492     O      0.296200000000     0.842100000000     0.468970000000     0          
C493     C      0.272930000000     0.852370000000     0.448870000000     0          
C494     C      0.284390000000     0.883380000000     0.426050000000     0          
N495     N      0.314190000000     0.900730000000     0.425160000000     0          
O496     O      0.335920000000     0.244470000000     0.947330000000     0          
O497     O      0.296200000000     0.342100000000     0.968970000000     0          
C498     C      0.272930000000     0.352370000000     0.948870000000     0          
C499     C      0.284390000000     0.383380000000     0.926050000000     0          
N500     N      0.314190000000     0.400730000000     0.925160000000     0          
O501     O      0.164080000000     0.255530000000     0.947330000000     0          
O502     O      0.203800000000     0.157900000000     0.968970000000     0          
C503     C      0.227070000000     0.147630000000     0.948870000000     0          
C504     C      0.215610000000     0.116620000000     0.926050000000     0          
N505     N      0.185810000000     0.099270000000     0.925160000000     0          
O506     O      0.164080000000     0.755530000000     0.447330000000     0          
O507     O      0.203800000000     0.657900000000     0.468970000000     0          
C508     C      0.227070000000     0.647630000000     0.448870000000     0          
C509     C      0.215610000000     0.616620000000     0.426050000000     0          
N510     N      0.185810000000     0.599270000000     0.425160000000     0          
O511     O      0.664080000000     0.255530000000     0.447330000000     0          
O512     O      0.703800000000     0.157900000000     0.468970000000     0          
C513     C      0.727070000000     0.147630000000     0.448870000000     0          
C514     C      0.715610000000     0.116620000000     0.426050000000     0          
N515     N      0.685810000000     0.099270000000     0.425160000000     0          
O516     O      0.664080000000     0.755530000000     0.947330000000     0          
O517     O      0.703800000000     0.657900000000     0.968970000000     0          
C518     C      0.727070000000     0.647630000000     0.948870000000     0          
C519     C      0.715610000000     0.616620000000     0.926050000000     0          
N520     N      0.685810000000     0.599270000000     0.925160000000     0          
O521     O      0.164080000000     0.744470000000     0.052670000000     0          
O522     O      0.203800000000     0.842100000000     0.031030000000     0          
C523     C      0.227070000000     0.852370000000     0.051130000000     0          
C524     C      0.215610000000     0.883380000000     0.073950000000     0          
N525     N      0.185810000000     0.900730000000     0.074840000000     0          
O526     O      0.164080000000     0.244470000000     0.552670000000     0          
O527     O      0.203800000000     0.342100000000     0.531030000000     0          
C528     C      0.227070000000     0.352370000000     0.551130000000     0          
C529     C      0.215610000000     0.383380000000     0.573950000000     0          
N530     N      0.185810000000     0.400730000000     0.574840000000     0          
O531     O      0.664080000000     0.744470000000     0.552670000000     0          
O532     O      0.703800000000     0.842100000000     0.531030000000     0          
C533     C      0.727070000000     0.852370000000     0.551130000000     0          
C534     C      0.715610000000     0.883380000000     0.573950000000     0          
N535     N      0.685810000000     0.900730000000     0.574840000000     0          
O536     O      0.664080000000     0.244470000000     0.052670000000     0          
O537     O      0.703800000000     0.342100000000     0.031030000000     0          
C538     C      0.727070000000     0.352370000000     0.051130000000     0          
C539     C      0.715610000000     0.383380000000     0.073950000000     0          
N540     N      0.685810000000     0.400730000000     0.074840000000     0          
O541     O      0.835920000000     0.255530000000     0.052670000000     0          
O542     O      0.796200000000     0.157900000000     0.031030000000     0          
C543     C      0.772930000000     0.147630000000     0.051130000000     0          
C544     C      0.784390000000     0.116620000000     0.073950000000     0          
N545     N      0.814190000000     0.099270000000     0.074840000000     0          
O546     O      0.835920000000     0.755530000000     0.552670000000     0          
O547     O      0.796200000000     0.657900000000     0.531030000000     0          
C548     C      0.772930000000     0.647630000000     0.551130000000     0          
C549     C      0.784390000000     0.616620000000     0.573950000000     0          
N550     N      0.814190000000     0.599270000000     0.574840000000     0          
O551     O      0.335920000000     0.255530000000     0.552670000000     0          
O552     O      0.296200000000     0.157900000000     0.531030000000     0          
C553     C      0.272930000000     0.147630000000     0.551130000000     0          
C554     C      0.284390000000     0.116620000000     0.573950000000     0          
N555     N      0.314190000000     0.099270000000     0.574840000000     0          
O556     O      0.335920000000     0.755530000000     0.052670000000     0          
O557     O      0.296200000000     0.657900000000     0.031030000000     0          
C558     C      0.272930000000     0.647630000000     0.051130000000     0          
C559     C      0.284390000000     0.616620000000     0.073950000000     0          
N560     N      0.314190000000     0.599270000000     0.074840000000     0          
O561     O      0.947330000000     0.835920000000     0.744470000000     0          
O562     O      0.968970000000     0.796200000000     0.842100000000     0          
C563     C      0.948870000000     0.772930000000     0.852370000000     0          
C564     C      0.926050000000     0.784390000000     0.883380000000     0          
N565     N      0.925160000000     0.814190000000     0.900730000000     0          
O566     O      0.947330000000     0.335920000000     0.244470000000     0          
O567     O      0.968970000000     0.296200000000     0.342100000000     0          
C568     C      0.948870000000     0.272930000000     0.352370000000     0          
C569     C      0.926050000000     0.284390000000     0.383380000000     0          
N570     N      0.925160000000     0.314190000000     0.400730000000     0          
O571     O      0.447330000000     0.835920000000     0.244470000000     0          
O572     O      0.468970000000     0.796200000000     0.342100000000     0          
C573     C      0.448870000000     0.772930000000     0.352370000000     0          
C574     C      0.426050000000     0.784390000000     0.383380000000     0          
N575     N      0.425160000000     0.814190000000     0.400730000000     0          
O576     O      0.447330000000     0.335920000000     0.744470000000     0          
O577     O      0.468970000000     0.296200000000     0.842100000000     0          
C578     C      0.448870000000     0.272930000000     0.852370000000     0          
C579     C      0.426050000000     0.284390000000     0.883380000000     0          
N580     N      0.425160000000     0.314190000000     0.900730000000     0          
O581     O      0.947330000000     0.164080000000     0.255530000000     0          
O582     O      0.968970000000     0.203800000000     0.157900000000     0          
C583     C      0.948870000000     0.227070000000     0.147630000000     0          
C584     C      0.926050000000     0.215610000000     0.116620000000     0          
N585     N      0.925160000000     0.185810000000     0.099270000000     0          
O586     O      0.947330000000     0.664080000000     0.755530000000     0          
O587     O      0.968970000000     0.703800000000     0.657900000000     0          
C588     C      0.948870000000     0.727070000000     0.647630000000     0          
C589     C      0.926050000000     0.715610000000     0.616620000000     0          
N590     N      0.925160000000     0.685810000000     0.599270000000     0          
O591     O      0.447330000000     0.164080000000     0.755530000000     0          
O592     O      0.468970000000     0.203800000000     0.657900000000     0          
C593     C      0.448870000000     0.227070000000     0.647630000000     0          
C594     C      0.426050000000     0.215610000000     0.616620000000     0          
N595     N      0.425160000000     0.185810000000     0.599270000000     0          
O596     O      0.447330000000     0.664080000000     0.255530000000     0          
O597     O      0.468970000000     0.703800000000     0.157900000000     0          
C598     C      0.448870000000     0.727070000000     0.147630000000     0          
C599     C      0.426050000000     0.715610000000     0.116620000000     0          
N600     N      0.425160000000     0.685810000000     0.099270000000     0          
O601     O      0.052670000000     0.164080000000     0.744470000000     0          
O602     O      0.031030000000     0.203800000000     0.842100000000     0          
C603     C      0.051130000000     0.227070000000     0.852370000000     0          
C604     C      0.073950000000     0.215610000000     0.883380000000     0          
N605     N      0.074840000000     0.185810000000     0.900730000000     0          
O606     O      0.052670000000     0.664080000000     0.244470000000     0          
O607     O      0.031030000000     0.703800000000     0.342100000000     0          
C608     C      0.051130000000     0.727070000000     0.352370000000     0          
C609     C      0.073950000000     0.715610000000     0.383380000000     0          
N610     N      0.074840000000     0.685810000000     0.400730000000     0          
O611     O      0.552670000000     0.164080000000     0.244470000000     0          
O612     O      0.531030000000     0.203800000000     0.342100000000     0          
C613     C      0.551130000000     0.227070000000     0.352370000000     0          
C614     C      0.573950000000     0.215610000000     0.383380000000     0          
N615     N      0.574840000000     0.185810000000     0.400730000000     0          
O616     O      0.552670000000     0.664080000000     0.744470000000     0          
O617     O      0.531030000000     0.703800000000     0.842100000000     0          
C618     C      0.551130000000     0.727070000000     0.852370000000     0          
C619     C      0.573950000000     0.715610000000     0.883380000000     0          
N620     N      0.574840000000     0.685810000000     0.900730000000     0          
O621     O      0.052670000000     0.835920000000     0.255530000000     0          
O622     O      0.031030000000     0.796200000000     0.157900000000     0          
C623     C      0.051130000000     0.772930000000     0.147630000000     0          
C624     C      0.073950000000     0.784390000000     0.116620000000     0          
N625     N      0.074840000000     0.814190000000     0.099270000000     0          
O626     O      0.052670000000     0.335920000000     0.755530000000     0          
O627     O      0.031030000000     0.296200000000     0.657900000000     0          
C628     C      0.051130000000     0.272930000000     0.647630000000     0          
C629     C      0.073950000000     0.284390000000     0.616620000000     0          
N630     N      0.074840000000     0.314190000000     0.599270000000     0          
O631     O      0.552670000000     0.835920000000     0.755530000000     0          
O632     O      0.531030000000     0.796200000000     0.657900000000     0          
C633     C      0.551130000000     0.772930000000     0.647630000000     0          
C634     C      0.573950000000     0.784390000000     0.616620000000     0          
N635     N      0.574840000000     0.814190000000     0.599270000000     0          
O636     O      0.552670000000     0.335920000000     0.255530000000     0          
O637     O      0.531030000000     0.296200000000     0.157900000000     0          
C638     C      0.551130000000     0.272930000000     0.147630000000     0          
C639     C      0.573950000000     0.284390000000     0.116620000000     0          
N640     N      0.574840000000     0.314190000000     0.099270000000     0          
O641     O      0.744470000000     0.947330000000     0.835920000000     0          
O642     O      0.842100000000     0.968970000000     0.796200000000     0          
C643     C      0.852370000000     0.948870000000     0.772930000000     0          
C644     C      0.883380000000     0.926050000000     0.784390000000     0          
N645     N      0.900730000000     0.925160000000     0.814190000000     0          
O646     O      0.744470000000     0.447330000000     0.335920000000     0          
O647     O      0.842100000000     0.468970000000     0.296200000000     0          
C648     C      0.852370000000     0.448870000000     0.272930000000     0          
C649     C      0.883380000000     0.426050000000     0.284390000000     0          
N650     N      0.900730000000     0.425160000000     0.314190000000     0          
O651     O      0.244470000000     0.947330000000     0.335920000000     0          
O652     O      0.342100000000     0.968970000000     0.296200000000     0          
C653     C      0.352370000000     0.948870000000     0.272930000000     0          
C654     C      0.383380000000     0.926050000000     0.284390000000     0          
N655     N      0.400730000000     0.925160000000     0.314190000000     0          
O656     O      0.244470000000     0.447330000000     0.835920000000     0          
O657     O      0.342100000000     0.468970000000     0.796200000000     0          
C658     C      0.352370000000     0.448870000000     0.772930000000     0          
C659     C      0.383380000000     0.426050000000     0.784390000000     0          
N660     N      0.400730000000     0.425160000000     0.814190000000     0          
O661     O      0.255530000000     0.947330000000     0.164080000000     0          
O662     O      0.157900000000     0.968970000000     0.203800000000     0          
C663     C      0.147630000000     0.948870000000     0.227070000000     0          
C664     C      0.116620000000     0.926050000000     0.215610000000     0          
N665     N      0.099270000000     0.925160000000     0.185810000000     0          
O666     O      0.255530000000     0.447330000000     0.664080000000     0          
O667     O      0.157900000000     0.468970000000     0.703800000000     0          
C668     C      0.147630000000     0.448870000000     0.727070000000     0          
C669     C      0.116620000000     0.426050000000     0.715610000000     0          
N670     N      0.099270000000     0.425160000000     0.685810000000     0          
O671     O      0.755530000000     0.947330000000     0.664080000000     0          
O672     O      0.657900000000     0.968970000000     0.703800000000     0          
C673     C      0.647630000000     0.948870000000     0.727070000000     0          
C674     C      0.616620000000     0.926050000000     0.715610000000     0          
N675     N      0.599270000000     0.925160000000     0.685810000000     0          
O676     O      0.755530000000     0.447330000000     0.164080000000     0          
O677     O      0.657900000000     0.468970000000     0.203800000000     0          
C678     C      0.647630000000     0.448870000000     0.227070000000     0          
C679     C      0.616620000000     0.426050000000     0.215610000000     0          
N680     N      0.599270000000     0.425160000000     0.185810000000     0          
O681     O      0.744470000000     0.052670000000     0.164080000000     0          
O682     O      0.842100000000     0.031030000000     0.203800000000     0          
C683     C      0.852370000000     0.051130000000     0.227070000000     0          
C684     C      0.883380000000     0.073950000000     0.215610000000     0          
N685     N      0.900730000000     0.074840000000     0.185810000000     0          
O686     O      0.744470000000     0.552670000000     0.664080000000     0          
O687     O      0.842100000000     0.531030000000     0.703800000000     0          
C688     C      0.852370000000     0.551130000000     0.727070000000     0          
C689     C      0.883380000000     0.573950000000     0.715610000000     0          
N690     N      0.900730000000     0.574840000000     0.685810000000     0          
O691     O      0.244470000000     0.052670000000     0.664080000000     0          
O692     O      0.342100000000     0.031030000000     0.703800000000     0          
C693     C      0.352370000000     0.051130000000     0.727070000000     0          
C694     C      0.383380000000     0.073950000000     0.715610000000     0          
N695     N      0.400730000000     0.074840000000     0.685810000000     0          
O696     O      0.244470000000     0.552670000000     0.164080000000     0          
O697     O      0.342100000000     0.531030000000     0.203800000000     0          
C698     C      0.352370000000     0.551130000000     0.227070000000     0          
C699     C      0.383380000000     0.573950000000     0.215610000000     0          
N700     N      0.400730000000     0.574840000000     0.185810000000     0          
O701     O      0.255530000000     0.052670000000     0.835920000000     0          
O702     O      0.157900000000     0.031030000000     0.796200000000     0          
C703     C      0.147630000000     0.051130000000     0.772930000000     0          
C704     C      0.116620000000     0.073950000000     0.784390000000     0          
N705     N      0.099270000000     0.074840000000     0.814190000000     0          
O706     O      0.255530000000     0.552670000000     0.335920000000     0          
O707     O      0.157900000000     0.531030000000     0.296200000000     0          
C708     C      0.147630000000     0.551130000000     0.272930000000     0          
C709     C      0.116620000000     0.573950000000     0.284390000000     0          
N710     N      0.099270000000     0.574840000000     0.314190000000     0          
O711     O      0.755530000000     0.052670000000     0.335920000000     0          
O712     O      0.657900000000     0.031030000000     0.296200000000     0          
C713     C      0.647630000000     0.051130000000     0.272930000000     0          
C714     C      0.616620000000     0.073950000000     0.284390000000     0          
N715     N      0.599270000000     0.074840000000     0.314190000000     0          
O716     O      0.755530000000     0.552670000000     0.835920000000     0          
O717     O      0.657900000000     0.531030000000     0.796200000000     0          
C718     C      0.647630000000     0.551130000000     0.772930000000     0          
C719     C      0.616620000000     0.573950000000     0.784390000000     0          
N720     N      0.599270000000     0.574840000000     0.814190000000     0          
O721     O      0.744470000000     0.835920000000     0.052670000000     0          
O722     O      0.842100000000     0.796200000000     0.031030000000     0          
C723     C      0.852370000000     0.772930000000     0.051130000000     0          
C724     C      0.883380000000     0.784390000000     0.073950000000     0          
N725     N      0.900730000000     0.814190000000     0.074840000000     0          
O726     O      0.744470000000     0.335920000000     0.552670000000     0          
O727     O      0.842100000000     0.296200000000     0.531030000000     0          
C728     C      0.852370000000     0.272930000000     0.551130000000     0          
C729     C      0.883380000000     0.284390000000     0.573950000000     0          
N730     N      0.900730000000     0.314190000000     0.574840000000     0          
O731     O      0.244470000000     0.835920000000     0.552670000000     0          
O732     O      0.342100000000     0.796200000000     0.531030000000     0          
C733     C      0.352370000000     0.772930000000     0.551130000000     0          
C734     C      0.383380000000     0.784390000000     0.573950000000     0          
N735     N      0.400730000000     0.814190000000     0.574840000000     0          
O736     O      0.244470000000     0.335920000000     0.052670000000     0          
O737     O      0.342100000000     0.296200000000     0.031030000000     0          
C738     C      0.352370000000     0.272930000000     0.051130000000     0          
C739     C      0.383380000000     0.284390000000     0.073950000000     0          
N740     N      0.400730000000     0.314190000000     0.074840000000     0          
O741     O      0.255530000000     0.164080000000     0.052670000000     0          
O742     O      0.157900000000     0.203800000000     0.031030000000     0          
C743     C      0.147630000000     0.227070000000     0.051130000000     0          
C744     C      0.116620000000     0.215610000000     0.073950000000     0          
N745     N      0.099270000000     0.185810000000     0.074840000000     0          
O746     O      0.255530000000     0.664080000000     0.552670000000     0          
O747     O      0.157900000000     0.703800000000     0.531030000000     0          
C748     C      0.147630000000     0.727070000000     0.551130000000     0          
C749     C      0.116620000000     0.715610000000     0.573950000000     0          
N750     N      0.099270000000     0.685810000000     0.574840000000     0          
O751     O      0.755530000000     0.164080000000     0.552670000000     0          
O752     O      0.657900000000     0.203800000000     0.531030000000     0          
C753     C      0.647630000000     0.227070000000     0.551130000000     0          
C754     C      0.616620000000     0.215610000000     0.573950000000     0          
N755     N      0.599270000000     0.185810000000     0.574840000000     0          
O756     O      0.755530000000     0.664080000000     0.052670000000     0          
O757     O      0.657900000000     0.703800000000     0.031030000000     0          
C758     C      0.647630000000     0.727070000000     0.051130000000     0          
C759     C      0.616620000000     0.715610000000     0.073950000000     0          
N760     N      0.599270000000     0.685810000000     0.074840000000     0          
O761     O      0.744470000000     0.164080000000     0.947330000000     0          
O762     O      0.842100000000     0.203800000000     0.968970000000     0          
C763     C      0.852370000000     0.227070000000     0.948870000000     0          
C764     C      0.883380000000     0.215610000000     0.926050000000     0          
N765     N      0.900730000000     0.185810000000     0.925160000000     0          
O766     O      0.744470000000     0.664080000000     0.447330000000     0          
O767     O      0.842100000000     0.703800000000     0.468970000000     0          
C768     C      0.852370000000     0.727070000000     0.448870000000     0          
C769     C      0.883380000000     0.715610000000     0.426050000000     0          
N770     N      0.900730000000     0.685810000000     0.425160000000     0          
O771     O      0.244470000000     0.164080000000     0.447330000000     0          
O772     O      0.342100000000     0.203800000000     0.468970000000     0          
C773     C      0.352370000000     0.227070000000     0.448870000000     0          
C774     C      0.383380000000     0.215610000000     0.426050000000     0          
N775     N      0.400730000000     0.185810000000     0.425160000000     0          
O776     O      0.244470000000     0.664080000000     0.947330000000     0          
O777     O      0.342100000000     0.703800000000     0.968970000000     0          
C778     C      0.352370000000     0.727070000000     0.948870000000     0          
C779     C      0.383380000000     0.715610000000     0.926050000000     0          
N780     N      0.400730000000     0.685810000000     0.925160000000     0          
O781     O      0.255530000000     0.835920000000     0.947330000000     0          
O782     O      0.157900000000     0.796200000000     0.968970000000     0          
C783     C      0.147630000000     0.772930000000     0.948870000000     0          
C784     C      0.116620000000     0.784390000000     0.926050000000     0          
N785     N      0.099270000000     0.814190000000     0.925160000000     0          
O786     O      0.255530000000     0.335920000000     0.447330000000     0          
O787     O      0.157900000000     0.296200000000     0.468970000000     0          
C788     C      0.147630000000     0.272930000000     0.448870000000     0          
C789     C      0.116620000000     0.284390000000     0.426050000000     0          
N790     N      0.099270000000     0.314190000000     0.425160000000     0          
O791     O      0.755530000000     0.835920000000     0.447330000000     0          
O792     O      0.657900000000     0.796200000000     0.468970000000     0          
C793     C      0.647630000000     0.772930000000     0.448870000000     0          
C794     C      0.616620000000     0.784390000000     0.426050000000     0          
N795     N      0.599270000000     0.814190000000     0.425160000000     0          
O796     O      0.755530000000     0.335920000000     0.947330000000     0          
O797     O      0.657900000000     0.296200000000     0.968970000000     0          
C798     C      0.647630000000     0.272930000000     0.948870000000     0          
C799     C      0.616620000000     0.284390000000     0.926050000000     0          
N800     N      0.599270000000     0.314190000000     0.925160000000     0          
O801     O      0.835920000000     0.947330000000     0.255530000000     0          
O802     O      0.796200000000     0.968970000000     0.157900000000     0          
C803     C      0.772930000000     0.948870000000     0.147630000000     0          
C804     C      0.784390000000     0.926050000000     0.116620000000     0          
N805     N      0.814190000000     0.925160000000     0.099270000000     0          
O806     O      0.835920000000     0.447330000000     0.755530000000     0          
O807     O      0.796200000000     0.468970000000     0.657900000000     0          
C808     C      0.772930000000     0.448870000000     0.647630000000     0          
C809     C      0.784390000000     0.426050000000     0.616620000000     0          
N810     N      0.814190000000     0.425160000000     0.599270000000     0          
O811     O      0.335920000000     0.947330000000     0.755530000000     0          
O812     O      0.296200000000     0.968970000000     0.657900000000     0          
C813     C      0.272930000000     0.948870000000     0.647630000000     0          
C814     C      0.284390000000     0.926050000000     0.616620000000     0          
N815     N      0.314190000000     0.925160000000     0.599270000000     0          
O816     O      0.335920000000     0.447330000000     0.255530000000     0          
O817     O      0.296200000000     0.468970000000     0.157900000000     0          
C818     C      0.272930000000     0.448870000000     0.147630000000     0          
C819     C      0.284390000000     0.426050000000     0.116620000000     0          
N820     N      0.314190000000     0.425160000000     0.099270000000     0          
O821     O      0.164080000000     0.947330000000     0.744470000000     0          
O822     O      0.203800000000     0.968970000000     0.842100000000     0          
C823     C      0.227070000000     0.948870000000     0.852370000000     0          
C824     C      0.215610000000     0.926050000000     0.883380000000     0          
N825     N      0.185810000000     0.925160000000     0.900730000000     0          
O826     O      0.164080000000     0.447330000000     0.244470000000     0          
O827     O      0.203800000000     0.468970000000     0.342100000000     0          
C828     C      0.227070000000     0.448870000000     0.352370000000     0          
C829     C      0.215610000000     0.426050000000     0.383380000000     0          
N830     N      0.185810000000     0.425160000000     0.400730000000     0          
O831     O      0.664080000000     0.947330000000     0.244470000000     0          
O832     O      0.703800000000     0.968970000000     0.342100000000     0          
C833     C      0.727070000000     0.948870000000     0.352370000000     0          
C834     C      0.715610000000     0.926050000000     0.383380000000     0          
N835     N      0.685810000000     0.925160000000     0.400730000000     0          
O836     O      0.664080000000     0.447330000000     0.744470000000     0          
O837     O      0.703800000000     0.468970000000     0.842100000000     0          
C838     C      0.727070000000     0.448870000000     0.852370000000     0          
C839     C      0.715610000000     0.426050000000     0.883380000000     0          
N840     N      0.685810000000     0.425160000000     0.900730000000     0          
O841     O      0.164080000000     0.052670000000     0.255530000000     0          
O842     O      0.203800000000     0.031030000000     0.157900000000     0          
C843     C      0.227070000000     0.051130000000     0.147630000000     0          
C844     C      0.215610000000     0.073950000000     0.116620000000     0          
N845     N      0.185810000000     0.074840000000     0.099270000000     0          
O846     O      0.164080000000     0.552670000000     0.755530000000     0          
O847     O      0.203800000000     0.531030000000     0.657900000000     0          
C848     C      0.227070000000     0.551130000000     0.647630000000     0          
C849     C      0.215610000000     0.573950000000     0.616620000000     0          
N850     N      0.185810000000     0.574840000000     0.599270000000     0          
O851     O      0.664080000000     0.052670000000     0.755530000000     0          
O852     O      0.703800000000     0.031030000000     0.657900000000     0          
C853     C      0.727070000000     0.051130000000     0.647630000000     0          
C854     C      0.715610000000     0.073950000000     0.616620000000     0          
N855     N      0.685810000000     0.074840000000     0.599270000000     0          
O856     O      0.664080000000     0.552670000000     0.255530000000     0          
O857     O      0.703800000000     0.531030000000     0.157900000000     0          
C858     C      0.727070000000     0.551130000000     0.147630000000     0          
C859     C      0.715610000000     0.573950000000     0.116620000000     0          
N860     N      0.685810000000     0.574840000000     0.099270000000     0          
O861     O      0.835920000000     0.052670000000     0.744470000000     0          
O862     O      0.796200000000     0.031030000000     0.842100000000     0          
C863     C      0.772930000000     0.051130000000     0.852370000000     0          
C864     C      0.784390000000     0.073950000000     0.883380000000     0          
N865     N      0.814190000000     0.074840000000     0.900730000000     0          
O866     O      0.835920000000     0.552670000000     0.244470000000     0          
O867     O      0.796200000000     0.531030000000     0.342100000000     0          
C868     C      0.772930000000     0.551130000000     0.352370000000     0          
C869     C      0.784390000000     0.573950000000     0.383380000000     0          
N870     N      0.814190000000     0.574840000000     0.400730000000     0          
O871     O      0.335920000000     0.052670000000     0.244470000000     0          
O872     O      0.296200000000     0.031030000000     0.342100000000     0          
C873     C      0.272930000000     0.051130000000     0.352370000000     0          
C874     C      0.284390000000     0.073950000000     0.383380000000     0          
N875     N      0.314190000000     0.074840000000     0.400730000000     0          
O876     O      0.335920000000     0.552670000000     0.744470000000     0          
O877     O      0.296200000000     0.531030000000     0.842100000000     0          
C878     C      0.272930000000     0.551130000000     0.852370000000     0          
C879     C      0.284390000000     0.573950000000     0.883380000000     0          
N880     N      0.314190000000     0.574840000000     0.900730000000     0          
O881     O      0.947330000000     0.744470000000     0.164080000000     0          
O882     O      0.968970000000     0.842100000000     0.203800000000     0          
C883     C      0.948870000000     0.852370000000     0.227070000000     0          
C884     C      0.926050000000     0.883380000000     0.215610000000     0          
N885     N      0.925160000000     0.900730000000     0.185810000000     0          
O886     O      0.947330000000     0.244470000000     0.664080000000     0          
O887     O      0.968970000000     0.342100000000     0.703800000000     0          
C888     C      0.948870000000     0.352370000000     0.727070000000     0          
C889     C      0.926050000000     0.383380000000     0.715610000000     0          
N890     N      0.925160000000     0.400730000000     0.685810000000     0          
O891     O      0.447330000000     0.744470000000     0.664080000000     0          
O892     O      0.468970000000     0.842100000000     0.703800000000     0          
C893     C      0.448870000000     0.852370000000     0.727070000000     0          
C894     C      0.426050000000     0.883380000000     0.715610000000     0          
N895     N      0.425160000000     0.900730000000     0.685810000000     0          
O896     O      0.447330000000     0.244470000000     0.164080000000     0          
O897     O      0.468970000000     0.342100000000     0.203800000000     0          
C898     C      0.448870000000     0.352370000000     0.227070000000     0          
C899     C      0.426050000000     0.383380000000     0.215610000000     0          
N900     N      0.425160000000     0.400730000000     0.185810000000     0          
O901     O      0.947330000000     0.255530000000     0.835920000000     0          
O902     O      0.968970000000     0.157900000000     0.796200000000     0          
C903     C      0.948870000000     0.147630000000     0.772930000000     0          
C904     C      0.926050000000     0.116620000000     0.784390000000     0          
N905     N      0.925160000000     0.099270000000     0.814190000000     0          
O906     O      0.947330000000     0.755530000000     0.335920000000     0          
O907     O      0.968970000000     0.657900000000     0.296200000000     0          
C908     C      0.948870000000     0.647630000000     0.272930000000     0          
C909     C      0.926050000000     0.616620000000     0.284390000000     0          
N910     N      0.925160000000     0.599270000000     0.314190000000     0          
O911     O      0.447330000000     0.255530000000     0.335920000000     0          
O912     O      0.468970000000     0.157900000000     0.296200000000     0          
C913     C      0.448870000000     0.147630000000     0.272930000000     0          
C914     C      0.426050000000     0.116620000000     0.284390000000     0          
N915     N      0.425160000000     0.099270000000     0.314190000000     0          
O916     O      0.447330000000     0.755530000000     0.835920000000     0          
O917     O      0.468970000000     0.657900000000     0.796200000000     0          
C918     C      0.448870000000     0.647630000000     0.772930000000     0          
C919     C      0.426050000000     0.616620000000     0.784390000000     0          
N920     N      0.425160000000     0.599270000000     0.814190000000     0          
O921     O      0.052670000000     0.744470000000     0.835920000000     0          
O922     O      0.031030000000     0.842100000000     0.796200000000     0          
C923     C      0.051130000000     0.852370000000     0.772930000000     0          
C924     C      0.073950000000     0.883380000000     0.784390000000     0          
N925     N      0.074840000000     0.900730000000     0.814190000000     0          
O926     O      0.052670000000     0.244470000000     0.335920000000     0          
O927     O      0.031030000000     0.342100000000     0.296200000000     0          
C928     C      0.051130000000     0.352370000000     0.272930000000     0          
C929     C      0.073950000000     0.383380000000     0.284390000000     0          
N930     N      0.074840000000     0.400730000000     0.314190000000     0          
O931     O      0.552670000000     0.744470000000     0.335920000000     0          
O932     O      0.531030000000     0.842100000000     0.296200000000     0          
C933     C      0.551130000000     0.852370000000     0.272930000000     0          
C934     C      0.573950000000     0.883380000000     0.284390000000     0          
N935     N      0.574840000000     0.900730000000     0.314190000000     0          
O936     O      0.552670000000     0.244470000000     0.835920000000     0          
O937     O      0.531030000000     0.342100000000     0.796200000000     0          
C938     C      0.551130000000     0.352370000000     0.772930000000     0          
C939     C      0.573950000000     0.383380000000     0.784390000000     0          
N940     N      0.574840000000     0.400730000000     0.814190000000     0          
O941     O      0.052670000000     0.255530000000     0.164080000000     0          
O942     O      0.031030000000     0.157900000000     0.203800000000     0          
C943     C      0.051130000000     0.147630000000     0.227070000000     0          
C944     C      0.073950000000     0.116620000000     0.215610000000     0          
N945     N      0.074840000000     0.099270000000     0.185810000000     0          
O946     O      0.052670000000     0.755530000000     0.664080000000     0          
O947     O      0.031030000000     0.657900000000     0.703800000000     0          
C948     C      0.051130000000     0.647630000000     0.727070000000     0          
C949     C      0.073950000000     0.616620000000     0.715610000000     0          
N950     N      0.074840000000     0.599270000000     0.685810000000     0          
O951     O      0.552670000000     0.255530000000     0.664080000000     0          
O952     O      0.531030000000     0.157900000000     0.703800000000     0          
C953     C      0.551130000000     0.147630000000     0.727070000000     0          
C954     C      0.573950000000     0.116620000000     0.715610000000     0          
N955     N      0.574840000000     0.099270000000     0.685810000000     0          
O956     O      0.552670000000     0.755530000000     0.164080000000     0          
O957     O      0.531030000000     0.657900000000     0.203800000000     0          
C958     C      0.551130000000     0.647630000000     0.227070000000     0          
C959     C      0.573950000000     0.616620000000     0.215610000000     0          
N960     N      0.574840000000     0.599270000000     0.185810000000     0          
Zr961    Zr     0.215700000000     0.284300000000     0.047230000000     0          
Zr962    Zr     0.215700000000     0.784300000000     0.547230000000     0          
Zr963    Zr     0.784300000000     0.715700000000     0.047230000000     0          
Zr964    Zr     0.784300000000     0.215700000000     0.547230000000     0          
Zr965    Zr     0.284300000000     0.215700000000     0.047230000000     0          
Zr966    Zr     0.784300000000     0.284300000000     0.952770000000     0          
Zr967    Zr     0.784300000000     0.784300000000     0.452770000000     0          
Zr968    Zr     0.284300000000     0.284300000000     0.452770000000     0          
Zr969    Zr     0.215700000000     0.715700000000     0.952770000000     0          
Zr970    Zr     0.215700000000     0.215700000000     0.452770000000     0          
Zr971    Zr     0.047230000000     0.215700000000     0.284300000000     0          
Zr972    Zr     0.547230000000     0.215700000000     0.784300000000     0          
Zr973    Zr     0.047230000000     0.784300000000     0.715700000000     0          
Zr974    Zr     0.047230000000     0.284300000000     0.215700000000     0          
Zr975    Zr     0.547230000000     0.784300000000     0.215700000000     0          
Zr976    Zr     0.952770000000     0.784300000000     0.284300000000     0          
Zr977    Zr     0.452770000000     0.784300000000     0.784300000000     0          
Zr978    Zr     0.452770000000     0.284300000000     0.284300000000     0          
Zr979    Zr     0.952770000000     0.215700000000     0.715700000000     0          
Zr980    Zr     0.452770000000     0.215700000000     0.215700000000     0          
Zr981    Zr     0.284300000000     0.047230000000     0.215700000000     0          
Zr982    Zr     0.284300000000     0.547230000000     0.715700000000     0          
Zr983    Zr     0.715700000000     0.047230000000     0.784300000000     0          
Zr984    Zr     0.715700000000     0.547230000000     0.284300000000     0          
Zr985    Zr     0.215700000000     0.047230000000     0.284300000000     0          
Zr986    Zr     0.284300000000     0.952770000000     0.784300000000     0          
Zr987    Zr     0.284300000000     0.452770000000     0.284300000000     0          
Zr988    Zr     0.715700000000     0.952770000000     0.215700000000     0          
Zr989    Zr     0.715700000000     0.452770000000     0.715700000000     0          
Zr990    Zr     0.215700000000     0.452770000000     0.215700000000     0          
Zr991    Zr     0.284300000000     0.215700000000     0.952770000000     0          
Zr992    Zr     0.284300000000     0.715700000000     0.452770000000     0          
Zr993    Zr     0.715700000000     0.784300000000     0.952770000000     0          
Zr994    Zr     0.715700000000     0.284300000000     0.452770000000     0          
Zr995    Zr     0.215700000000     0.284300000000     0.952770000000     0          
Zr996    Zr     0.284300000000     0.784300000000     0.047230000000     0          
Zr997    Zr     0.284300000000     0.284300000000     0.547230000000     0          
Zr998    Zr     0.715700000000     0.215700000000     0.047230000000     0          
Zr999    Zr     0.715700000000     0.715700000000     0.547230000000     0          
Zr1000   Zr     0.215700000000     0.215700000000     0.547230000000     0          
Zr1001   Zr     0.215700000000     0.047230000000     0.715700000000     0          
Zr1002   Zr     0.215700000000     0.547230000000     0.215700000000     0          
Zr1003   Zr     0.784300000000     0.047230000000     0.284300000000     0          
Zr1004   Zr     0.784300000000     0.547230000000     0.784300000000     0          
Zr1005   Zr     0.284300000000     0.547230000000     0.284300000000     0          
Zr1006   Zr     0.784300000000     0.952770000000     0.715700000000     0          
Zr1007   Zr     0.784300000000     0.452770000000     0.215700000000     0          
Zr1008   Zr     0.284300000000     0.952770000000     0.215700000000     0          
Zr1009   Zr     0.215700000000     0.952770000000     0.284300000000     0          
Zr1010   Zr     0.215700000000     0.452770000000     0.784300000000     0          
Zr1011   Zr     0.047230000000     0.284300000000     0.784300000000     0          
Zr1012   Zr     0.547230000000     0.284300000000     0.284300000000     0          
Zr1013   Zr     0.047230000000     0.715700000000     0.215700000000     0          
Zr1014   Zr     0.547230000000     0.715700000000     0.715700000000     0          
Zr1015   Zr     0.547230000000     0.215700000000     0.215700000000     0          
Zr1016   Zr     0.952770000000     0.284300000000     0.215700000000     0          
Zr1017   Zr     0.452770000000     0.284300000000     0.715700000000     0          
Zr1018   Zr     0.952770000000     0.715700000000     0.784300000000     0          
Zr1019   Zr     0.952770000000     0.215700000000     0.284300000000     0          
Zr1020   Zr     0.452770000000     0.715700000000     0.284300000000     0          
Zr1021   Zr     0.784300000000     0.715700000000     0.952770000000     0          
Zr1022   Zr     0.784300000000     0.215700000000     0.452770000000     0          
Zr1023   Zr     0.215700000000     0.784300000000     0.452770000000     0          
Zr1024   Zr     0.215700000000     0.715700000000     0.047230000000     0          
Zr1025   Zr     0.784300000000     0.284300000000     0.047230000000     0          
Zr1026   Zr     0.784300000000     0.784300000000     0.547230000000     0          
Zr1027   Zr     0.952770000000     0.784300000000     0.715700000000     0          
Zr1028   Zr     0.452770000000     0.784300000000     0.215700000000     0          
Zr1029   Zr     0.452770000000     0.215700000000     0.784300000000     0          
Zr1030   Zr     0.047230000000     0.215700000000     0.715700000000     0          
Zr1031   Zr     0.047230000000     0.784300000000     0.284300000000     0          
Zr1032   Zr     0.547230000000     0.784300000000     0.784300000000     0          
Zr1033   Zr     0.715700000000     0.952770000000     0.784300000000     0          
Zr1034   Zr     0.715700000000     0.452770000000     0.284300000000     0          
Zr1035   Zr     0.284300000000     0.452770000000     0.715700000000     0          
Zr1036   Zr     0.715700000000     0.047230000000     0.215700000000     0          
Zr1037   Zr     0.715700000000     0.547230000000     0.715700000000     0          
Zr1038   Zr     0.284300000000     0.047230000000     0.784300000000     0          
Zr1039   Zr     0.715700000000     0.784300000000     0.047230000000     0          
Zr1040   Zr     0.715700000000     0.284300000000     0.547230000000     0          
Zr1041   Zr     0.284300000000     0.715700000000     0.547230000000     0          
Zr1042   Zr     0.715700000000     0.215700000000     0.952770000000     0          
Zr1043   Zr     0.715700000000     0.715700000000     0.452770000000     0          
Zr1044   Zr     0.284300000000     0.784300000000     0.952770000000     0          
Zr1045   Zr     0.784300000000     0.952770000000     0.284300000000     0          
Zr1046   Zr     0.784300000000     0.452770000000     0.784300000000     0          
Zr1047   Zr     0.215700000000     0.952770000000     0.715700000000     0          
Zr1048   Zr     0.215700000000     0.547230000000     0.784300000000     0          
Zr1049   Zr     0.784300000000     0.047230000000     0.715700000000     0          
Zr1050   Zr     0.784300000000     0.547230000000     0.215700000000     0          
Zr1051   Zr     0.952770000000     0.715700000000     0.215700000000     0          
Zr1052   Zr     0.452770000000     0.715700000000     0.715700000000     0          
Zr1053   Zr     0.952770000000     0.284300000000     0.784300000000     0          
Zr1054   Zr     0.047230000000     0.715700000000     0.784300000000     0          
Zr1055   Zr     0.547230000000     0.715700000000     0.284300000000     0          
Zr1056   Zr     0.547230000000     0.284300000000     0.715700000000     0          
O1057    O      0.227310000000     0.227310000000     0.044100000000     0          
O1058    O      0.227310000000     0.727310000000     0.544100000000     0          
O1059    O      0.727310000000     0.227310000000     0.544100000000     0          
O1060    O      0.727310000000     0.727310000000     0.044100000000     0          
O1061    O      0.772690000000     0.772690000000     0.044100000000     0          
O1062    O      0.772690000000     0.272690000000     0.544100000000     0          
O1063    O      0.272690000000     0.772690000000     0.544100000000     0          
O1064    O      0.272690000000     0.272690000000     0.044100000000     0          
O1065    O      0.772690000000     0.227310000000     0.955900000000     0          
O1066    O      0.772690000000     0.727310000000     0.455900000000     0          
O1067    O      0.272690000000     0.227310000000     0.455900000000     0          
O1068    O      0.272690000000     0.727310000000     0.955900000000     0          
O1069    O      0.227310000000     0.772690000000     0.955900000000     0          
O1070    O      0.227310000000     0.272690000000     0.455900000000     0          
O1071    O      0.727310000000     0.772690000000     0.455900000000     0          
O1072    O      0.727310000000     0.272690000000     0.955900000000     0          
O1073    O      0.044100000000     0.227310000000     0.227310000000     0          
O1074    O      0.044100000000     0.727310000000     0.727310000000     0          
O1075    O      0.544100000000     0.227310000000     0.727310000000     0          
O1076    O      0.544100000000     0.727310000000     0.227310000000     0          
O1077    O      0.044100000000     0.772690000000     0.772690000000     0          
O1078    O      0.044100000000     0.272690000000     0.272690000000     0          
O1079    O      0.544100000000     0.772690000000     0.272690000000     0          
O1080    O      0.544100000000     0.272690000000     0.772690000000     0          
O1081    O      0.955900000000     0.772690000000     0.227310000000     0          
O1082    O      0.955900000000     0.272690000000     0.727310000000     0          
O1083    O      0.455900000000     0.772690000000     0.727310000000     0          
O1084    O      0.455900000000     0.272690000000     0.227310000000     0          
O1085    O      0.955900000000     0.227310000000     0.772690000000     0          
O1086    O      0.955900000000     0.727310000000     0.272690000000     0          
O1087    O      0.455900000000     0.227310000000     0.272690000000     0          
O1088    O      0.455900000000     0.727310000000     0.772690000000     0          
O1089    O      0.227310000000     0.044100000000     0.227310000000     0          
O1090    O      0.227310000000     0.544100000000     0.727310000000     0          
O1091    O      0.727310000000     0.044100000000     0.727310000000     0          
O1092    O      0.727310000000     0.544100000000     0.227310000000     0          
O1093    O      0.772690000000     0.044100000000     0.772690000000     0          
O1094    O      0.772690000000     0.544100000000     0.272690000000     0          
O1095    O      0.272690000000     0.044100000000     0.272690000000     0          
O1096    O      0.272690000000     0.544100000000     0.772690000000     0          
O1097    O      0.227310000000     0.955900000000     0.772690000000     0          
O1098    O      0.227310000000     0.455900000000     0.272690000000     0          
O1099    O      0.727310000000     0.955900000000     0.272690000000     0          
O1100    O      0.727310000000     0.455900000000     0.772690000000     0          
O1101    O      0.772690000000     0.955900000000     0.227310000000     0          
O1102    O      0.772690000000     0.455900000000     0.727310000000     0          
O1103    O      0.272690000000     0.955900000000     0.727310000000     0          
O1104    O      0.272690000000     0.455900000000     0.227310000000     0          
O1105    O      0.227310000000     0.227310000000     0.955900000000     0          
O1106    O      0.227310000000     0.727310000000     0.455900000000     0          
O1107    O      0.727310000000     0.227310000000     0.455900000000     0          
O1108    O      0.727310000000     0.727310000000     0.955900000000     0          
O1109    O      0.772690000000     0.772690000000     0.955900000000     0          
O1110    O      0.772690000000     0.272690000000     0.455900000000     0          
O1111    O      0.272690000000     0.772690000000     0.455900000000     0          
O1112    O      0.272690000000     0.272690000000     0.955900000000     0          
O1113    O      0.227310000000     0.772690000000     0.044100000000     0          
O1114    O      0.227310000000     0.272690000000     0.544100000000     0          
O1115    O      0.727310000000     0.772690000000     0.544100000000     0          
O1116    O      0.727310000000     0.272690000000     0.044100000000     0          
O1117    O      0.772690000000     0.227310000000     0.044100000000     0          
O1118    O      0.772690000000     0.727310000000     0.544100000000     0          
O1119    O      0.272690000000     0.227310000000     0.544100000000     0          
O1120    O      0.272690000000     0.727310000000     0.044100000000     0          
O1121    O      0.227310000000     0.044100000000     0.772690000000     0          
O1122    O      0.227310000000     0.544100000000     0.272690000000     0          
O1123    O      0.727310000000     0.044100000000     0.272690000000     0          
O1124    O      0.727310000000     0.544100000000     0.772690000000     0          
O1125    O      0.772690000000     0.044100000000     0.227310000000     0          
O1126    O      0.772690000000     0.544100000000     0.727310000000     0          
O1127    O      0.272690000000     0.044100000000     0.727310000000     0          
O1128    O      0.272690000000     0.544100000000     0.227310000000     0          
O1129    O      0.772690000000     0.955900000000     0.772690000000     0          
O1130    O      0.772690000000     0.455900000000     0.272690000000     0          
O1131    O      0.272690000000     0.955900000000     0.272690000000     0          
O1132    O      0.272690000000     0.455900000000     0.772690000000     0          
O1133    O      0.227310000000     0.955900000000     0.227310000000     0          
O1134    O      0.227310000000     0.455900000000     0.727310000000     0          
O1135    O      0.727310000000     0.955900000000     0.727310000000     0          
O1136    O      0.727310000000     0.455900000000     0.227310000000     0          
O1137    O      0.044100000000     0.227310000000     0.772690000000     0          
O1138    O      0.044100000000     0.727310000000     0.272690000000     0          
O1139    O      0.544100000000     0.227310000000     0.272690000000     0          
O1140    O      0.544100000000     0.727310000000     0.772690000000     0          
O1141    O      0.044100000000     0.772690000000     0.227310000000     0          
O1142    O      0.044100000000     0.272690000000     0.727310000000     0          
O1143    O      0.544100000000     0.772690000000     0.727310000000     0          
O1144    O      0.544100000000     0.272690000000     0.227310000000     0          
O1145    O      0.955900000000     0.227310000000     0.227310000000     0          
O1146    O      0.955900000000     0.727310000000     0.727310000000     0          
O1147    O      0.455900000000     0.227310000000     0.727310000000     0          
O1148    O      0.455900000000     0.727310000000     0.227310000000     0          
O1149    O      0.955900000000     0.772690000000     0.772690000000     0          
O1150    O      0.955900000000     0.272690000000     0.272690000000     0          
O1151    O      0.455900000000     0.772690000000     0.272690000000     0          
O1152    O      0.455900000000     0.272690000000     0.772690000000     0          
O1153    O      0.239330000000     0.304320000000     0.000000000000     0          
O1154    O      0.239330000000     0.804320000000     0.500000000000     0          
O1155    O      0.739330000000     0.304320000000     0.500000000000     0          
O1156    O      0.739330000000     0.804320000000     0.000000000000     0          
O1157    O      0.760670000000     0.695680000000     0.000000000000     0          
O1158    O      0.760670000000     0.195680000000     0.500000000000     0          
O1159    O      0.260670000000     0.695680000000     0.500000000000     0          
O1160    O      0.260670000000     0.195680000000     0.000000000000     0          
O1161    O      0.760670000000     0.304320000000     0.000000000000     0          
O1162    O      0.760670000000     0.804320000000     0.500000000000     0          
O1163    O      0.260670000000     0.304320000000     0.500000000000     0          
O1164    O      0.260670000000     0.804320000000     0.000000000000     0          
O1165    O      0.239330000000     0.695680000000     0.000000000000     0          
O1166    O      0.239330000000     0.195680000000     0.500000000000     0          
O1167    O      0.739330000000     0.695680000000     0.500000000000     0          
O1168    O      0.739330000000     0.195680000000     0.000000000000     0          
O1169    O      0.000000000000     0.239330000000     0.304320000000     0          
O1170    O      0.000000000000     0.739330000000     0.804320000000     0          
O1171    O      0.500000000000     0.239330000000     0.804320000000     0          
O1172    O      0.500000000000     0.739330000000     0.304320000000     0          
O1173    O      0.000000000000     0.760670000000     0.695680000000     0          
O1174    O      0.000000000000     0.260670000000     0.195680000000     0          
O1175    O      0.500000000000     0.760670000000     0.195680000000     0          
O1176    O      0.500000000000     0.260670000000     0.695680000000     0          
O1177    O      0.000000000000     0.760670000000     0.304320000000     0          
O1178    O      0.000000000000     0.260670000000     0.804320000000     0          
O1179    O      0.500000000000     0.760670000000     0.804320000000     0          
O1180    O      0.500000000000     0.260670000000     0.304320000000     0          
O1181    O      0.000000000000     0.239330000000     0.695680000000     0          
O1182    O      0.000000000000     0.739330000000     0.195680000000     0          
O1183    O      0.500000000000     0.239330000000     0.195680000000     0          
O1184    O      0.500000000000     0.739330000000     0.695680000000     0          
O1185    O      0.304320000000     0.000000000000     0.239330000000     0          
O1186    O      0.304320000000     0.500000000000     0.739330000000     0          
O1187    O      0.804320000000     0.000000000000     0.739330000000     0          
O1188    O      0.804320000000     0.500000000000     0.239330000000     0          
O1189    O      0.695680000000     0.000000000000     0.760670000000     0          
O1190    O      0.695680000000     0.500000000000     0.260670000000     0          
O1191    O      0.195680000000     0.000000000000     0.260670000000     0          
O1192    O      0.195680000000     0.500000000000     0.760670000000     0          
O1193    O      0.304320000000     0.000000000000     0.760670000000     0          
O1194    O      0.304320000000     0.500000000000     0.260670000000     0          
O1195    O      0.804320000000     0.000000000000     0.260670000000     0          
O1196    O      0.804320000000     0.500000000000     0.760670000000     0          
O1197    O      0.695680000000     0.000000000000     0.239330000000     0          
O1198    O      0.695680000000     0.500000000000     0.739330000000     0          
O1199    O      0.195680000000     0.000000000000     0.739330000000     0          
O1200    O      0.195680000000     0.500000000000     0.239330000000     0          
O1201    O      0.304320000000     0.239330000000     0.000000000000     0          
O1202    O      0.304320000000     0.739330000000     0.500000000000     0          
O1203    O      0.804320000000     0.239330000000     0.500000000000     0          
O1204    O      0.804320000000     0.739330000000     0.000000000000     0          
O1205    O      0.695680000000     0.760670000000     0.000000000000     0          
O1206    O      0.695680000000     0.260670000000     0.500000000000     0          
O1207    O      0.195680000000     0.760670000000     0.500000000000     0          
O1208    O      0.195680000000     0.260670000000     0.000000000000     0          
O1209    O      0.304320000000     0.760670000000     0.000000000000     0          
O1210    O      0.304320000000     0.260670000000     0.500000000000     0          
O1211    O      0.804320000000     0.760670000000     0.500000000000     0          
O1212    O      0.804320000000     0.260670000000     0.000000000000     0          
O1213    O      0.695680000000     0.239330000000     0.000000000000     0          
O1214    O      0.695680000000     0.739330000000     0.500000000000     0          
O1215    O      0.195680000000     0.239330000000     0.500000000000     0          
O1216    O      0.195680000000     0.739330000000     0.000000000000     0          
O1217    O      0.239330000000     0.000000000000     0.695680000000     0          
O1218    O      0.239330000000     0.500000000000     0.195680000000     0          
O1219    O      0.739330000000     0.000000000000     0.195680000000     0          
O1220    O      0.739330000000     0.500000000000     0.695680000000     0          
O1221    O      0.760670000000     0.000000000000     0.304320000000     0          
O1222    O      0.760670000000     0.500000000000     0.804320000000     0          
O1223    O      0.260670000000     0.000000000000     0.804320000000     0          
O1224    O      0.260670000000     0.500000000000     0.304320000000     0          
O1225    O      0.760670000000     0.000000000000     0.695680000000     0          
O1226    O      0.760670000000     0.500000000000     0.195680000000     0          
O1227    O      0.260670000000     0.000000000000     0.195680000000     0          
O1228    O      0.260670000000     0.500000000000     0.695680000000     0          
O1229    O      0.239330000000     0.000000000000     0.304320000000     0          
O1230    O      0.239330000000     0.500000000000     0.804320000000     0          
O1231    O      0.739330000000     0.000000000000     0.804320000000     0          
O1232    O      0.739330000000     0.500000000000     0.304320000000     0          
O1233    O      0.000000000000     0.304320000000     0.760670000000     0          
O1234    O      0.000000000000     0.804320000000     0.260670000000     0          
O1235    O      0.500000000000     0.304320000000     0.260670000000     0          
O1236    O      0.500000000000     0.804320000000     0.760670000000     0          
O1237    O      0.000000000000     0.695680000000     0.239330000000     0          
O1238    O      0.000000000000     0.195680000000     0.739330000000     0          
O1239    O      0.500000000000     0.695680000000     0.739330000000     0          
O1240    O      0.500000000000     0.195680000000     0.239330000000     0          
O1241    O      0.000000000000     0.304320000000     0.239330000000     0          
O1242    O      0.000000000000     0.804320000000     0.739330000000     0          
O1243    O      0.500000000000     0.304320000000     0.739330000000     0          
O1244    O      0.500000000000     0.804320000000     0.239330000000     0          
O1245    O      0.000000000000     0.695680000000     0.760670000000     0          
O1246    O      0.000000000000     0.195680000000     0.260670000000     0          
O1247    O      0.500000000000     0.695680000000     0.260670000000     0          
O1248    O      0.500000000000     0.195680000000     0.760670000000     0          
Zr1249   Zr     0.202970000000     0.202970000000     0.000000000000     0          
Zr1250   Zr     0.202970000000     0.702970000000     0.500000000000     0          
Zr1251   Zr     0.702970000000     0.202970000000     0.500000000000     0          
Zr1252   Zr     0.702970000000     0.702970000000     0.000000000000     0          
Zr1253   Zr     0.797030000000     0.797030000000     0.000000000000     0          
Zr1254   Zr     0.797030000000     0.297030000000     0.500000000000     0          
Zr1255   Zr     0.297030000000     0.797030000000     0.500000000000     0          
Zr1256   Zr     0.297030000000     0.297030000000     0.000000000000     0          
Zr1257   Zr     0.797030000000     0.202970000000     0.000000000000     0          
Zr1258   Zr     0.797030000000     0.702970000000     0.500000000000     0          
Zr1259   Zr     0.297030000000     0.202970000000     0.500000000000     0          
Zr1260   Zr     0.297030000000     0.702970000000     0.000000000000     0          
Zr1261   Zr     0.202970000000     0.797030000000     0.000000000000     0          
Zr1262   Zr     0.202970000000     0.297030000000     0.500000000000     0          
Zr1263   Zr     0.702970000000     0.797030000000     0.500000000000     0          
Zr1264   Zr     0.702970000000     0.297030000000     0.000000000000     0          
Zr1265   Zr     0.000000000000     0.202970000000     0.202970000000     0          
Zr1266   Zr     0.000000000000     0.702970000000     0.702970000000     0          
Zr1267   Zr     0.500000000000     0.202970000000     0.702970000000     0          
Zr1268   Zr     0.500000000000     0.702970000000     0.202970000000     0          
Zr1269   Zr     0.000000000000     0.797030000000     0.797030000000     0          
Zr1270   Zr     0.000000000000     0.297030000000     0.297030000000     0          
Zr1271   Zr     0.500000000000     0.797030000000     0.297030000000     0          
Zr1272   Zr     0.500000000000     0.297030000000     0.797030000000     0          
Zr1273   Zr     0.000000000000     0.797030000000     0.202970000000     0          
Zr1274   Zr     0.000000000000     0.297030000000     0.702970000000     0          
Zr1275   Zr     0.500000000000     0.797030000000     0.702970000000     0          
Zr1276   Zr     0.500000000000     0.297030000000     0.202970000000     0          
Zr1277   Zr     0.000000000000     0.202970000000     0.797030000000     0          
Zr1278   Zr     0.000000000000     0.702970000000     0.297030000000     0          
Zr1279   Zr     0.500000000000     0.202970000000     0.297030000000     0          
Zr1280   Zr     0.500000000000     0.702970000000     0.797030000000     0          
Zr1281   Zr     0.202970000000     0.000000000000     0.202970000000     0          
Zr1282   Zr     0.202970000000     0.500000000000     0.702970000000     0          
Zr1283   Zr     0.702970000000     0.000000000000     0.702970000000     0          
Zr1284   Zr     0.702970000000     0.500000000000     0.202970000000     0          
Zr1285   Zr     0.797030000000     0.000000000000     0.797030000000     0          
Zr1286   Zr     0.797030000000     0.500000000000     0.297030000000     0          
Zr1287   Zr     0.297030000000     0.000000000000     0.297030000000     0          
Zr1288   Zr     0.297030000000     0.500000000000     0.797030000000     0          
Zr1289   Zr     0.202970000000     0.000000000000     0.797030000000     0          
Zr1290   Zr     0.202970000000     0.500000000000     0.297030000000     0          
Zr1291   Zr     0.702970000000     0.000000000000     0.297030000000     0          
Zr1292   Zr     0.702970000000     0.500000000000     0.797030000000     0          
Zr1293   Zr     0.797030000000     0.000000000000     0.202970000000     0          
Zr1294   Zr     0.797030000000     0.500000000000     0.702970000000     0          
Zr1295   Zr     0.297030000000     0.000000000000     0.702970000000     0          
Zr1296   Zr     0.297030000000     0.500000000000     0.202970000000     0          
C1297    C      0.234900000000     0.100580000000     0.100580000000     0          
C1298    C      0.234900000000     0.600580000000     0.600580000000     0          
C1299    C      0.734900000000     0.100580000000     0.600580000000     0          
C1300    C      0.734900000000     0.600580000000     0.100580000000     0          
C1301    C      0.765100000000     0.899420000000     0.100580000000     0          
C1302    C      0.765100000000     0.399420000000     0.600580000000     0          
C1303    C      0.265100000000     0.899420000000     0.600580000000     0          
C1304    C      0.265100000000     0.399420000000     0.100580000000     0          
C1305    C      0.765100000000     0.100580000000     0.899420000000     0          
C1306    C      0.765100000000     0.600580000000     0.399420000000     0          
C1307    C      0.265100000000     0.100580000000     0.399420000000     0          
C1308    C      0.265100000000     0.600580000000     0.899420000000     0          
C1309    C      0.234900000000     0.899420000000     0.899420000000     0          
C1310    C      0.234900000000     0.399420000000     0.399420000000     0          
C1311    C      0.734900000000     0.899420000000     0.399420000000     0          
C1312    C      0.734900000000     0.399420000000     0.899420000000     0          
C1313    C      0.100580000000     0.234900000000     0.100580000000     0          
C1314    C      0.100580000000     0.734900000000     0.600580000000     0          
C1315    C      0.600580000000     0.234900000000     0.600580000000     0          
C1316    C      0.600580000000     0.734900000000     0.100580000000     0          
C1317    C      0.100580000000     0.765100000000     0.899420000000     0          
C1318    C      0.100580000000     0.265100000000     0.399420000000     0          
C1319    C      0.600580000000     0.765100000000     0.399420000000     0          
C1320    C      0.600580000000     0.265100000000     0.899420000000     0          
C1321    C      0.899420000000     0.765100000000     0.100580000000     0          
C1322    C      0.899420000000     0.265100000000     0.600580000000     0          
C1323    C      0.399420000000     0.765100000000     0.600580000000     0          
C1324    C      0.399420000000     0.265100000000     0.100580000000     0          
C1325    C      0.899420000000     0.234900000000     0.899420000000     0          
C1326    C      0.899420000000     0.734900000000     0.399420000000     0          
C1327    C      0.399420000000     0.234900000000     0.399420000000     0          
C1328    C      0.399420000000     0.734900000000     0.899420000000     0          
C1329    C      0.100580000000     0.100580000000     0.234900000000     0          
C1330    C      0.100580000000     0.600580000000     0.734900000000     0          
C1331    C      0.600580000000     0.100580000000     0.734900000000     0          
C1332    C      0.600580000000     0.600580000000     0.234900000000     0          
C1333    C      0.899420000000     0.100580000000     0.765100000000     0          
C1334    C      0.899420000000     0.600580000000     0.265100000000     0          
C1335    C      0.399420000000     0.100580000000     0.265100000000     0          
C1336    C      0.399420000000     0.600580000000     0.765100000000     0          
C1337    C      0.100580000000     0.899420000000     0.765100000000     0          
C1338    C      0.100580000000     0.399420000000     0.265100000000     0          
C1339    C      0.600580000000     0.899420000000     0.265100000000     0          
C1340    C      0.600580000000     0.399420000000     0.765100000000     0          
C1341    C      0.899420000000     0.899420000000     0.234900000000     0          
C1342    C      0.899420000000     0.399420000000     0.734900000000     0          
C1343    C      0.399420000000     0.899420000000     0.734900000000     0          
C1344    C      0.399420000000     0.399420000000     0.234900000000     0          
C1345    C      0.100580000000     0.234900000000     0.899420000000     0          
C1346    C      0.100580000000     0.734900000000     0.399420000000     0          
C1347    C      0.600580000000     0.234900000000     0.399420000000     0          
C1348    C      0.600580000000     0.734900000000     0.899420000000     0          
C1349    C      0.899420000000     0.765100000000     0.899420000000     0          
C1350    C      0.899420000000     0.265100000000     0.399420000000     0          
C1351    C      0.399420000000     0.765100000000     0.399420000000     0          
C1352    C      0.399420000000     0.265100000000     0.899420000000     0          
C1353    C      0.100580000000     0.765100000000     0.100580000000     0          
C1354    C      0.100580000000     0.265100000000     0.600580000000     0          
C1355    C      0.600580000000     0.765100000000     0.600580000000     0          
C1356    C      0.600580000000     0.265100000000     0.100580000000     0          
C1357    C      0.899420000000     0.234900000000     0.100580000000     0          
C1358    C      0.899420000000     0.734900000000     0.600580000000     0          
C1359    C      0.399420000000     0.234900000000     0.600580000000     0          
C1360    C      0.399420000000     0.734900000000     0.100580000000     0          
C1361    C      0.234900000000     0.100580000000     0.899420000000     0          
C1362    C      0.234900000000     0.600580000000     0.399420000000     0          
C1363    C      0.734900000000     0.100580000000     0.399420000000     0          
C1364    C      0.734900000000     0.600580000000     0.899420000000     0          
C1365    C      0.765100000000     0.100580000000     0.100580000000     0          
C1366    C      0.765100000000     0.600580000000     0.600580000000     0          
C1367    C      0.265100000000     0.100580000000     0.600580000000     0          
C1368    C      0.265100000000     0.600580000000     0.100580000000     0          
C1369    C      0.765100000000     0.899420000000     0.899420000000     0          
C1370    C      0.765100000000     0.399420000000     0.399420000000     0          
C1371    C      0.265100000000     0.899420000000     0.399420000000     0          
C1372    C      0.265100000000     0.399420000000     0.899420000000     0          
C1373    C      0.234900000000     0.899420000000     0.100580000000     0          
C1374    C      0.234900000000     0.399420000000     0.600580000000     0          
C1375    C      0.734900000000     0.899420000000     0.600580000000     0          
C1376    C      0.734900000000     0.399420000000     0.100580000000     0          
C1377    C      0.100580000000     0.100580000000     0.765100000000     0          
C1378    C      0.100580000000     0.600580000000     0.265100000000     0          
C1379    C      0.600580000000     0.100580000000     0.265100000000     0          
C1380    C      0.600580000000     0.600580000000     0.765100000000     0          
C1381    C      0.100580000000     0.899420000000     0.234900000000     0          
C1382    C      0.100580000000     0.399420000000     0.734900000000     0          
C1383    C      0.600580000000     0.899420000000     0.734900000000     0          
C1384    C      0.600580000000     0.399420000000     0.234900000000     0          
C1385    C      0.899420000000     0.100580000000     0.234900000000     0          
C1386    C      0.899420000000     0.600580000000     0.734900000000     0          
C1387    C      0.399420000000     0.100580000000     0.734900000000     0          
C1388    C      0.399420000000     0.600580000000     0.234900000000     0          
C1389    C      0.899420000000     0.899420000000     0.765100000000     0          
C1390    C      0.899420000000     0.399420000000     0.265100000000     0          
C1391    C      0.399420000000     0.899420000000     0.265100000000     0          
C1392    C      0.399420000000     0.399420000000     0.765100000000     0          


