data_NIXBUU

_audit_creation_method RASPA-1.0
_audit_creation_date 2020-12-14
_audit_author_name 'Rocio Bueno-Perez'

_cell_length_a    34.3215
_cell_length_b    34.3215
_cell_length_c    15.1216
_cell_angle_alpha 90
_cell_angle_beta  90
_cell_angle_gamma 90
_cell_volume      17812.7

_symmetry_cell_setting          triclinic
_symmetry_space_group_name_Hall 'P 1'
_symmetry_space_group_name_H-M  'P 1'
_symmetry_Int_Tables_number     1

_symmetry_equiv_pos_as_xyz 'x,y,z'

loop_
_atom_site_label
_atom_site_type_symbol
_atom_site_fract_x
_atom_site_fract_y
_atom_site_fract_z
_atom_site_charge
F1       F      0.427700000000     0.721900000000     0.430400000000     0          
F2       F      0.390100000000     0.743700000000     0.338000000000     0          
F3       F      0.397200000000     0.772300000000     0.458900000000     0          
F4       F      0.499100000000     0.715500000000     0.452100000000     0          
F5       F      0.549000000000     0.722300000000     0.374900000000     0          
F6       F      0.532900000000     0.667000000000     0.422900000000     0          
O7       O      0.456790000000     0.894930000000     0.426200000000     0          
O8       O      0.515750000000     0.900110000000     0.361500000000     0          
O9       O      0.501800000000     0.585190000000     0.183600000000     0          
O10      O      0.449460000000     0.597960000000     0.099100000000     0          
O11      O      0.481990000000     0.969500000000     0.386400000000     0          
O12      O      0.510790000000     0.938520000000     0.516560000000     0          
C13      C      0.485150000000     0.881880000000     0.381000000000     0          
C14      C      0.481670000000     0.840660000000     0.350100000000     0          
C15      C      0.452640000000     0.816810000000     0.382600000000     0          
H16      H      0.434600000000     0.826900000000     0.424500000000     0          
C17      C      0.449330000000     0.778260000000     0.354900000000     0          
C18      C      0.476000000000     0.763660000000     0.293000000000     0          
C19      C      0.505660000000     0.787580000000     0.259500000000     0          
H20      H      0.523700000000     0.777800000000     0.217400000000     0          
C21      C      0.508140000000     0.826190000000     0.289500000000     0          
H22      H      0.528300000000     0.842600000000     0.267900000000     0          
C23      C      0.417000000000     0.755100000000     0.394200000000     0          
C24      C      0.472740000000     0.721960000000     0.263100000000     0          
C25      C      0.494810000000     0.692970000000     0.304600000000     0          
C26      C      0.494170000000     0.655020000000     0.270700000000     0          
H27      H      0.509000000000     0.635200000000     0.298600000000     0          
C28      C      0.472060000000     0.646220000000     0.196700000000     0          
C29      C      0.450020000000     0.675080000000     0.157100000000     0          
H30      H      0.434500000000     0.668800000000     0.107100000000     0          
C31      C      0.450130000000     0.713110000000     0.188800000000     0          
H32      H      0.435100000000     0.732700000000     0.160600000000     0          
C33      C      0.519200000000     0.699600000000     0.385000000000     0          
C34      C      0.474380000000     0.606640000000     0.157200000000     0          
F35      F      0.072300000000     0.778100000000     0.430400000000     0          
F36      F      0.109900000000     0.756300000000     0.338000000000     0          
F37      F      0.102800000000     0.727700000000     0.458900000000     0          
F38      F      0.000900000000     0.784500000000     0.452100000000     0          
F39      F      0.951000000000     0.777700000000     0.374900000000     0          
F40      F      0.967100000000     0.833000000000     0.422900000000     0          
O41      O      0.043210000000     0.605070000000     0.426200000000     0          
O42      O      0.984250000000     0.599890000000     0.361500000000     0          
O43      O      0.998200000000     0.914810000000     0.183600000000     0          
O44      O      0.050540000000     0.902040000000     0.099100000000     0          
O45      O      0.018010000000     0.530500000000     0.386400000000     0          
O46      O      0.989210000000     0.561480000000     0.516560000000     0          
C47      C      0.014850000000     0.618120000000     0.381000000000     0          
C48      C      0.018330000000     0.659340000000     0.350100000000     0          
C49      C      0.047360000000     0.683190000000     0.382600000000     0          
H50      H      0.065400000000     0.673100000000     0.424500000000     0          
C51      C      0.050670000000     0.721740000000     0.354900000000     0          
C52      C      0.024000000000     0.736340000000     0.293000000000     0          
C53      C      0.994340000000     0.712420000000     0.259500000000     0          
H54      H      0.976300000000     0.722200000000     0.217400000000     0          
C55      C      0.991860000000     0.673810000000     0.289500000000     0          
H56      H      0.971700000000     0.657400000000     0.267900000000     0          
C57      C      0.083000000000     0.744900000000     0.394200000000     0          
C58      C      0.027260000000     0.778040000000     0.263100000000     0          
C59      C      0.005190000000     0.807030000000     0.304600000000     0          
C60      C      0.005830000000     0.844980000000     0.270700000000     0          
H61      H      0.991000000000     0.864800000000     0.298600000000     0          
C62      C      0.027940000000     0.853780000000     0.196700000000     0          
C63      C      0.049980000000     0.824920000000     0.157100000000     0          
H64      H      0.065500000000     0.831200000000     0.107100000000     0          
C65      C      0.049870000000     0.786890000000     0.188800000000     0          
H66      H      0.064900000000     0.767300000000     0.160600000000     0          
C67      C      0.980800000000     0.800400000000     0.385000000000     0          
C68      C      0.025620000000     0.893360000000     0.157200000000     0          
C69      C      0.974700000000     0.488500000000     0.816000000000     0          
O70      O      0.955500000000     0.458080000000     0.790300000000     0          
C71      C      0.009500000000     0.528680000000     0.938700000000     0          
C72      C      0.988790000000     0.495800000000     0.911500000000     0          
C73      C      0.979400000000     0.467150000000     0.973300000000     0          
H74      H      0.964700000000     0.444900000000     0.956600000000     0          
H75      H      0.015700000000     0.548400000000     0.896900000000     0          
F76      F      0.778100000000     0.427700000000     0.930400000000     0          
F77      F      0.756300000000     0.390100000000     0.838000000000     0          
F78      F      0.727700000000     0.397200000000     0.958900000000     0          
F79      F      0.784500000000     0.499100000000     0.952100000000     0          
F80      F      0.777700000000     0.549000000000     0.874900000000     0          
F81      F      0.833000000000     0.532900000000     0.922900000000     0          
O82      O      0.605070000000     0.456790000000     0.926200000000     0          
O83      O      0.599890000000     0.515750000000     0.861500000000     0          
O84      O      0.914810000000     0.501800000000     0.683600000000     0          
O85      O      0.902040000000     0.449460000000     0.599100000000     0          
O86      O      0.530500000000     0.481990000000     0.886400000000     0          
O87      O      0.561480000000     0.510790000000     0.016560000000     0          
C88      C      0.618120000000     0.485150000000     0.881000000000     0          
C89      C      0.659340000000     0.481670000000     0.850100000000     0          
C90      C      0.683190000000     0.452640000000     0.882600000000     0          
H91      H      0.673100000000     0.434600000000     0.924500000000     0          
C92      C      0.721740000000     0.449330000000     0.854900000000     0          
C93      C      0.736340000000     0.476000000000     0.793000000000     0          
C94      C      0.712420000000     0.505660000000     0.759500000000     0          
H95      H      0.722200000000     0.523700000000     0.717400000000     0          
C96      C      0.673810000000     0.508140000000     0.789500000000     0          
H97      H      0.657400000000     0.528300000000     0.767900000000     0          
C98      C      0.744900000000     0.417000000000     0.894200000000     0          
C99      C      0.778040000000     0.472740000000     0.763100000000     0          
C100     C      0.807030000000     0.494810000000     0.804600000000     0          
C101     C      0.844980000000     0.494170000000     0.770700000000     0          
H102     H      0.864800000000     0.509000000000     0.798600000000     0          
C103     C      0.853780000000     0.472060000000     0.696700000000     0          
C104     C      0.824920000000     0.450020000000     0.657100000000     0          
H105     H      0.831200000000     0.434500000000     0.607100000000     0          
C106     C      0.786890000000     0.450130000000     0.688800000000     0          
H107     H      0.767300000000     0.435100000000     0.660600000000     0          
C108     C      0.800400000000     0.519200000000     0.885000000000     0          
C109     C      0.893360000000     0.474380000000     0.657200000000     0          
C110     C      0.488500000000     0.525300000000     0.316000000000     0          
O111     O      0.458080000000     0.544500000000     0.290300000000     0          
C112     C      0.528680000000     0.490500000000     0.438700000000     0          
C113     C      0.495800000000     0.511210000000     0.411500000000     0          
C114     C      0.467150000000     0.520600000000     0.473300000000     0          
H115     H      0.444900000000     0.535300000000     0.456600000000     0          
H116     H      0.548400000000     0.484300000000     0.396900000000     0          
F117     F      0.721900000000     0.072300000000     0.930400000000     0          
F118     F      0.743700000000     0.109900000000     0.838000000000     0          
F119     F      0.772300000000     0.102800000000     0.958900000000     0          
F120     F      0.715500000000     0.000900000000     0.952100000000     0          
F121     F      0.722300000000     0.951000000000     0.874900000000     0          
F122     F      0.667000000000     0.967100000000     0.922900000000     0          
O123     O      0.894930000000     0.043210000000     0.926200000000     0          
O124     O      0.900110000000     0.984250000000     0.861500000000     0          
O125     O      0.585190000000     0.998200000000     0.683600000000     0          
O126     O      0.597960000000     0.050540000000     0.599100000000     0          
O127     O      0.969500000000     0.018010000000     0.886400000000     0          
O128     O      0.938520000000     0.989210000000     0.016560000000     0          
C129     C      0.881880000000     0.014850000000     0.881000000000     0          
C130     C      0.840660000000     0.018330000000     0.850100000000     0          
C131     C      0.816810000000     0.047360000000     0.882600000000     0          
H132     H      0.826900000000     0.065400000000     0.924500000000     0          
C133     C      0.778260000000     0.050670000000     0.854900000000     0          
C134     C      0.763660000000     0.024000000000     0.793000000000     0          
C135     C      0.787580000000     0.994340000000     0.759500000000     0          
H136     H      0.777800000000     0.976300000000     0.717400000000     0          
C137     C      0.826190000000     0.991860000000     0.789500000000     0          
H138     H      0.842600000000     0.971700000000     0.767900000000     0          
C139     C      0.755100000000     0.083000000000     0.894200000000     0          
C140     C      0.721960000000     0.027260000000     0.763100000000     0          
C141     C      0.692970000000     0.005190000000     0.804600000000     0          
C142     C      0.655020000000     0.005830000000     0.770700000000     0          
H143     H      0.635200000000     0.991000000000     0.798600000000     0          
C144     C      0.646220000000     0.027940000000     0.696700000000     0          
C145     C      0.675080000000     0.049980000000     0.657100000000     0          
H146     H      0.668800000000     0.065500000000     0.607100000000     0          
C147     C      0.713110000000     0.049870000000     0.688800000000     0          
H148     H      0.732700000000     0.064900000000     0.660600000000     0          
C149     C      0.699600000000     0.980800000000     0.885000000000     0          
C150     C      0.606640000000     0.025620000000     0.657200000000     0          
C151     C      0.011500000000     0.974700000000     0.316000000000     0          
O152     O      0.041920000000     0.955500000000     0.290300000000     0          
C153     C      0.971320000000     0.009500000000     0.438700000000     0          
C154     C      0.004200000000     0.988790000000     0.411500000000     0          
C155     C      0.032850000000     0.979400000000     0.473300000000     0          
H156     H      0.055100000000     0.964700000000     0.456600000000     0          
H157     H      0.951600000000     0.015700000000     0.396900000000     0          
F158     F      0.572300000000     0.221900000000     0.069600000000     0          
F159     F      0.609900000000     0.243700000000     0.162000000000     0          
F160     F      0.602800000000     0.272300000000     0.041100000000     0          
F161     F      0.500900000000     0.215500000000     0.047900000000     0          
F162     F      0.451000000000     0.222300000000     0.125100000000     0          
F163     F      0.467100000000     0.167000000000     0.077100000000     0          
O164     O      0.543210000000     0.394930000000     0.073800000000     0          
O165     O      0.484250000000     0.400110000000     0.138500000000     0          
O166     O      0.498200000000     0.085190000000     0.316400000000     0          
O167     O      0.550540000000     0.097960000000     0.400900000000     0          
O168     O      0.518010000000     0.469500000000     0.113600000000     0          
O169     O      0.489210000000     0.438520000000     0.983440000000     0          
C170     C      0.514850000000     0.381880000000     0.119000000000     0          
C171     C      0.518330000000     0.340660000000     0.149900000000     0          
C172     C      0.547360000000     0.316810000000     0.117400000000     0          
H173     H      0.565400000000     0.326900000000     0.075500000000     0          
C174     C      0.550670000000     0.278260000000     0.145100000000     0          
C175     C      0.524000000000     0.263660000000     0.207000000000     0          
C176     C      0.494340000000     0.287580000000     0.240500000000     0          
H177     H      0.476300000000     0.277800000000     0.282600000000     0          
C178     C      0.491860000000     0.326190000000     0.210500000000     0          
H179     H      0.471700000000     0.342600000000     0.232100000000     0          
C180     C      0.583000000000     0.255100000000     0.105800000000     0          
C181     C      0.527260000000     0.221960000000     0.236900000000     0          
C182     C      0.505190000000     0.192970000000     0.195400000000     0          
C183     C      0.505830000000     0.155020000000     0.229300000000     0          
H184     H      0.491000000000     0.135200000000     0.201400000000     0          
C185     C      0.527940000000     0.146220000000     0.303300000000     0          
C186     C      0.549980000000     0.175080000000     0.342900000000     0          
H187     H      0.565500000000     0.168800000000     0.392900000000     0          
C188     C      0.549870000000     0.213110000000     0.311200000000     0          
H189     H      0.564900000000     0.232700000000     0.339400000000     0          
C190     C      0.480800000000     0.199600000000     0.115000000000     0          
C191     C      0.525620000000     0.106640000000     0.342800000000     0          
F192     F      0.927700000000     0.278100000000     0.069600000000     0          
F193     F      0.890100000000     0.256300000000     0.162000000000     0          
F194     F      0.897200000000     0.227700000000     0.041100000000     0          
F195     F      0.999100000000     0.284500000000     0.047900000000     0          
F196     F      0.049000000000     0.277700000000     0.125100000000     0          
F197     F      0.032900000000     0.333000000000     0.077100000000     0          
O198     O      0.956790000000     0.105070000000     0.073800000000     0          
O199     O      0.015750000000     0.099890000000     0.138500000000     0          
O200     O      0.001800000000     0.414810000000     0.316400000000     0          
O201     O      0.949460000000     0.402040000000     0.400900000000     0          
O202     O      0.981990000000     0.030500000000     0.113600000000     0          
O203     O      0.010790000000     0.061480000000     0.983440000000     0          
C204     C      0.985150000000     0.118120000000     0.119000000000     0          
C205     C      0.981670000000     0.159340000000     0.149900000000     0          
C206     C      0.952640000000     0.183190000000     0.117400000000     0          
H207     H      0.934600000000     0.173100000000     0.075500000000     0          
C208     C      0.949330000000     0.221740000000     0.145100000000     0          
C209     C      0.976000000000     0.236340000000     0.207000000000     0          
C210     C      0.005660000000     0.212420000000     0.240500000000     0          
H211     H      0.023700000000     0.222200000000     0.282600000000     0          
C212     C      0.008140000000     0.173810000000     0.210500000000     0          
H213     H      0.028300000000     0.157400000000     0.232100000000     0          
C214     C      0.917000000000     0.244900000000     0.105800000000     0          
C215     C      0.972740000000     0.278040000000     0.236900000000     0          
C216     C      0.994810000000     0.307030000000     0.195400000000     0          
C217     C      0.994170000000     0.344980000000     0.229300000000     0          
H218     H      0.009000000000     0.364800000000     0.201400000000     0          
C219     C      0.972060000000     0.353780000000     0.303300000000     0          
C220     C      0.950020000000     0.324920000000     0.342900000000     0          
H221     H      0.934500000000     0.331200000000     0.392900000000     0          
C222     C      0.950130000000     0.286890000000     0.311200000000     0          
H223     H      0.935100000000     0.267300000000     0.339400000000     0          
C224     C      0.019200000000     0.300400000000     0.115000000000     0          
C225     C      0.974380000000     0.393360000000     0.342800000000     0          
F226     F      0.221900000000     0.927700000000     0.569600000000     0          
F227     F      0.243700000000     0.890100000000     0.662000000000     0          
F228     F      0.272300000000     0.897200000000     0.541100000000     0          
F229     F      0.215500000000     0.999100000000     0.547900000000     0          
F230     F      0.222300000000     0.049000000000     0.625100000000     0          
F231     F      0.167000000000     0.032900000000     0.577100000000     0          
O232     O      0.394930000000     0.956790000000     0.573800000000     0          
O233     O      0.400110000000     0.015750000000     0.638500000000     0          
O234     O      0.085190000000     0.001800000000     0.816400000000     0          
O235     O      0.097960000000     0.949460000000     0.900900000000     0          
O236     O      0.469500000000     0.981990000000     0.613600000000     0          
O237     O      0.438520000000     0.010790000000     0.483440000000     0          
C238     C      0.381880000000     0.985150000000     0.619000000000     0          
C239     C      0.340660000000     0.981670000000     0.649900000000     0          
C240     C      0.316810000000     0.952640000000     0.617400000000     0          
H241     H      0.326900000000     0.934600000000     0.575500000000     0          
C242     C      0.278260000000     0.949330000000     0.645100000000     0          
C243     C      0.263660000000     0.976000000000     0.707000000000     0          
C244     C      0.287580000000     0.005660000000     0.740500000000     0          
H245     H      0.277800000000     0.023700000000     0.782600000000     0          
C246     C      0.326190000000     0.008140000000     0.710500000000     0          
H247     H      0.342600000000     0.028300000000     0.732100000000     0          
C248     C      0.255100000000     0.917000000000     0.605800000000     0          
C249     C      0.221960000000     0.972740000000     0.736900000000     0          
C250     C      0.192970000000     0.994810000000     0.695400000000     0          
C251     C      0.155020000000     0.994170000000     0.729300000000     0          
H252     H      0.135200000000     0.009000000000     0.701400000000     0          
C253     C      0.146220000000     0.972060000000     0.803300000000     0          
C254     C      0.175080000000     0.950020000000     0.842900000000     0          
H255     H      0.168800000000     0.934500000000     0.892900000000     0          
C256     C      0.213110000000     0.950130000000     0.811200000000     0          
H257     H      0.232700000000     0.935100000000     0.839400000000     0          
C258     C      0.199600000000     0.019200000000     0.615000000000     0          
C259     C      0.106640000000     0.974380000000     0.842800000000     0          
C260     C      0.511500000000     0.025300000000     0.184000000000     0          
O261     O      0.541920000000     0.044500000000     0.209700000000     0          
C262     C      0.471320000000     0.990500000000     0.061300000000     0          
C263     C      0.504200000000     0.011210000000     0.088500000000     0          
C264     C      0.532850000000     0.020600000000     0.026700000000     0          
N265     N      0.562900000000     0.045200000000     0.051900000000     0          
H266     H      0.451600000000     0.984300000000     0.103100000000     0          
H267     H      0.558700000000     0.063800000000     0.091000000000     0          
H268     H      0.586200000000     0.042100000000     0.028900000000     0          
F270     F      0.278100000000     0.572300000000     0.569600000000     0          
F271     F      0.256300000000     0.609900000000     0.662000000000     0          
F272     F      0.227700000000     0.602800000000     0.541100000000     0          
F273     F      0.284500000000     0.500900000000     0.547900000000     0          
F274     F      0.277700000000     0.451000000000     0.625100000000     0          
F275     F      0.333000000000     0.467100000000     0.577100000000     0          
O276     O      0.105070000000     0.543210000000     0.573800000000     0          
O277     O      0.099890000000     0.484250000000     0.638500000000     0          
O278     O      0.414810000000     0.498200000000     0.816400000000     0          
O279     O      0.402040000000     0.550540000000     0.900900000000     0          
O280     O      0.030500000000     0.518010000000     0.613600000000     0          
O281     O      0.061480000000     0.489210000000     0.483440000000     0          
C282     C      0.118120000000     0.514850000000     0.619000000000     0          
C283     C      0.159340000000     0.518330000000     0.649900000000     0          
C284     C      0.183190000000     0.547360000000     0.617400000000     0          
H285     H      0.173100000000     0.565400000000     0.575500000000     0          
C286     C      0.221740000000     0.550670000000     0.645100000000     0          
C287     C      0.236340000000     0.524000000000     0.707000000000     0          
C288     C      0.212420000000     0.494340000000     0.740500000000     0          
H289     H      0.222200000000     0.476300000000     0.782600000000     0          
C290     C      0.173810000000     0.491860000000     0.710500000000     0          
H291     H      0.157400000000     0.471700000000     0.732100000000     0          
C292     C      0.244900000000     0.583000000000     0.605800000000     0          
C293     C      0.278040000000     0.527260000000     0.736900000000     0          
C294     C      0.307030000000     0.505190000000     0.695400000000     0          
C295     C      0.344980000000     0.505830000000     0.729300000000     0          
H296     H      0.364800000000     0.491000000000     0.701400000000     0          
C297     C      0.353780000000     0.527940000000     0.803300000000     0          
C298     C      0.324920000000     0.549980000000     0.842900000000     0          
H299     H      0.331200000000     0.565500000000     0.892900000000     0          
C300     C      0.286890000000     0.549870000000     0.811200000000     0          
H301     H      0.267300000000     0.564900000000     0.839400000000     0          
C302     C      0.300400000000     0.480800000000     0.615000000000     0          
C303     C      0.393360000000     0.525620000000     0.842800000000     0          
F304     F      0.572300000000     0.278100000000     0.569600000000     0          
F305     F      0.609900000000     0.256300000000     0.662000000000     0          
F306     F      0.602800000000     0.227700000000     0.541100000000     0          
F307     F      0.500900000000     0.284500000000     0.547900000000     0          
F308     F      0.451000000000     0.277700000000     0.625100000000     0          
F309     F      0.467100000000     0.333000000000     0.577100000000     0          
O310     O      0.543210000000     0.105070000000     0.573800000000     0          
O311     O      0.484250000000     0.099890000000     0.638500000000     0          
O312     O      0.498200000000     0.414810000000     0.816400000000     0          
O313     O      0.550540000000     0.402040000000     0.900900000000     0          
O314     O      0.518010000000     0.030500000000     0.613600000000     0          
O315     O      0.489210000000     0.061480000000     0.483440000000     0          
C316     C      0.514850000000     0.118120000000     0.619000000000     0          
C317     C      0.518330000000     0.159340000000     0.649900000000     0          
C318     C      0.547360000000     0.183190000000     0.617400000000     0          
H319     H      0.565400000000     0.173100000000     0.575500000000     0          
C320     C      0.550670000000     0.221740000000     0.645100000000     0          
C321     C      0.524000000000     0.236340000000     0.707000000000     0          
C322     C      0.494340000000     0.212420000000     0.740500000000     0          
H323     H      0.476300000000     0.222200000000     0.782600000000     0          
C324     C      0.491860000000     0.173810000000     0.710500000000     0          
H325     H      0.471700000000     0.157400000000     0.732100000000     0          
C326     C      0.583000000000     0.244900000000     0.605800000000     0          
C327     C      0.527260000000     0.278040000000     0.736900000000     0          
C328     C      0.505190000000     0.307030000000     0.695400000000     0          
C329     C      0.505830000000     0.344980000000     0.729300000000     0          
H330     H      0.491000000000     0.364800000000     0.701400000000     0          
C331     C      0.527940000000     0.353780000000     0.803300000000     0          
C332     C      0.549980000000     0.324920000000     0.842900000000     0          
H333     H      0.565500000000     0.331200000000     0.892900000000     0          
C334     C      0.549870000000     0.286890000000     0.811200000000     0          
H335     H      0.564900000000     0.267300000000     0.839400000000     0          
C336     C      0.480800000000     0.300400000000     0.615000000000     0          
C337     C      0.525620000000     0.393360000000     0.842800000000     0          
F339     F      0.927700000000     0.221900000000     0.569600000000     0          
F340     F      0.890100000000     0.243700000000     0.662000000000     0          
F341     F      0.897200000000     0.272300000000     0.541100000000     0          
F342     F      0.999100000000     0.215500000000     0.547900000000     0          
F343     F      0.049000000000     0.222300000000     0.625100000000     0          
F344     F      0.032900000000     0.167000000000     0.577100000000     0          
O345     O      0.956790000000     0.394930000000     0.573800000000     0          
O346     O      0.015750000000     0.400110000000     0.638500000000     0          
O347     O      0.001800000000     0.085190000000     0.816400000000     0          
O348     O      0.949460000000     0.097960000000     0.900900000000     0          
O349     O      0.981990000000     0.469500000000     0.613600000000     0          
O350     O      0.010790000000     0.438520000000     0.483440000000     0          
C351     C      0.985150000000     0.381880000000     0.619000000000     0          
C352     C      0.981670000000     0.340660000000     0.649900000000     0          
C353     C      0.952640000000     0.316810000000     0.617400000000     0          
H354     H      0.934600000000     0.326900000000     0.575500000000     0          
C355     C      0.949330000000     0.278260000000     0.645100000000     0          
C356     C      0.976000000000     0.263660000000     0.707000000000     0          
C357     C      0.005660000000     0.287580000000     0.740500000000     0          
H358     H      0.023700000000     0.277800000000     0.782600000000     0          
C359     C      0.008140000000     0.326190000000     0.710500000000     0          
H360     H      0.028300000000     0.342600000000     0.732100000000     0          
C361     C      0.917000000000     0.255100000000     0.605800000000     0          
C362     C      0.972740000000     0.221960000000     0.736900000000     0          
C363     C      0.994810000000     0.192970000000     0.695400000000     0          
C364     C      0.994170000000     0.155020000000     0.729300000000     0          
H365     H      0.009000000000     0.135200000000     0.701400000000     0          
C366     C      0.972060000000     0.146220000000     0.803300000000     0          
C367     C      0.950020000000     0.175080000000     0.842900000000     0          
H368     H      0.934500000000     0.168800000000     0.892900000000     0          
C369     C      0.950130000000     0.213110000000     0.811200000000     0          
H370     H      0.935100000000     0.232700000000     0.839400000000     0          
C371     C      0.019200000000     0.199600000000     0.615000000000     0          
C372     C      0.974380000000     0.106640000000     0.842800000000     0          
C373     C      0.025300000000     0.511500000000     0.184000000000     0          
O374     O      0.044500000000     0.541920000000     0.209700000000     0          
C375     C      0.990500000000     0.471320000000     0.061300000000     0          
C376     C      0.011210000000     0.504200000000     0.088500000000     0          
C377     C      0.020600000000     0.532850000000     0.026700000000     0          
N378     N      0.045200000000     0.562900000000     0.051900000000     0          
H379     H      0.984300000000     0.451600000000     0.103100000000     0          
H380     H      0.063800000000     0.558700000000     0.091000000000     0          
H381     H      0.042100000000     0.586200000000     0.028900000000     0          
F382     F      0.221900000000     0.572300000000     0.069600000000     0          
F383     F      0.243700000000     0.609900000000     0.162000000000     0          
F384     F      0.272300000000     0.602800000000     0.041100000000     0          
F385     F      0.215500000000     0.500900000000     0.047900000000     0          
F386     F      0.222300000000     0.451000000000     0.125100000000     0          
F387     F      0.167000000000     0.467100000000     0.077100000000     0          
O388     O      0.394930000000     0.543210000000     0.073800000000     0          
O389     O      0.400110000000     0.484250000000     0.138500000000     0          
O390     O      0.085190000000     0.498200000000     0.316400000000     0          
O391     O      0.097960000000     0.550540000000     0.400900000000     0          
O392     O      0.469500000000     0.518010000000     0.113600000000     0          
O393     O      0.438520000000     0.489210000000     0.983440000000     0          
C394     C      0.381880000000     0.514850000000     0.119000000000     0          
C395     C      0.340660000000     0.518330000000     0.149900000000     0          
C396     C      0.316810000000     0.547360000000     0.117400000000     0          
H397     H      0.326900000000     0.565400000000     0.075500000000     0          
C398     C      0.278260000000     0.550670000000     0.145100000000     0          
C399     C      0.263660000000     0.524000000000     0.207000000000     0          
C400     C      0.287580000000     0.494340000000     0.240500000000     0          
H401     H      0.277800000000     0.476300000000     0.282600000000     0          
C402     C      0.326190000000     0.491860000000     0.210500000000     0          
H403     H      0.342600000000     0.471700000000     0.232100000000     0          
C404     C      0.255100000000     0.583000000000     0.105800000000     0          
C405     C      0.221960000000     0.527260000000     0.236900000000     0          
C406     C      0.192970000000     0.505190000000     0.195400000000     0          
C407     C      0.155020000000     0.505830000000     0.229300000000     0          
H408     H      0.135200000000     0.491000000000     0.201400000000     0          
C409     C      0.146220000000     0.527940000000     0.303300000000     0          
C410     C      0.175080000000     0.549980000000     0.342900000000     0          
H411     H      0.168800000000     0.565500000000     0.392900000000     0          
C412     C      0.213110000000     0.549870000000     0.311200000000     0          
H413     H      0.232700000000     0.564900000000     0.339400000000     0          
C414     C      0.199600000000     0.480800000000     0.115000000000     0          
C415     C      0.106640000000     0.525620000000     0.342800000000     0          
C416     C      0.511500000000     0.474700000000     0.684000000000     0          
O417     O      0.541920000000     0.455500000000     0.709700000000     0          
C418     C      0.471320000000     0.509500000000     0.561300000000     0          
C419     C      0.504200000000     0.488790000000     0.588500000000     0          
C420     C      0.532850000000     0.479400000000     0.526700000000     0          
N421     N      0.562900000000     0.454800000000     0.551900000000     0          
H422     H      0.451600000000     0.515700000000     0.603100000000     0          
H423     H      0.558700000000     0.436200000000     0.591000000000     0          
H424     H      0.586200000000     0.457900000000     0.528900000000     0          
F425     F      0.278100000000     0.927700000000     0.069600000000     0          
F426     F      0.256300000000     0.890100000000     0.162000000000     0          
F427     F      0.227700000000     0.897200000000     0.041100000000     0          
F428     F      0.284500000000     0.999100000000     0.047900000000     0          
F429     F      0.277700000000     0.049000000000     0.125100000000     0          
F430     F      0.333000000000     0.032900000000     0.077100000000     0          
O431     O      0.105070000000     0.956790000000     0.073800000000     0          
O432     O      0.099890000000     0.015750000000     0.138500000000     0          
O433     O      0.414810000000     0.001800000000     0.316400000000     0          
O434     O      0.402040000000     0.949460000000     0.400900000000     0          
O435     O      0.030500000000     0.981990000000     0.113600000000     0          
O436     O      0.061480000000     0.010790000000     0.983440000000     0          
C437     C      0.118120000000     0.985150000000     0.119000000000     0          
C438     C      0.159340000000     0.981670000000     0.149900000000     0          
C439     C      0.183190000000     0.952640000000     0.117400000000     0          
H440     H      0.173100000000     0.934600000000     0.075500000000     0          
C441     C      0.221740000000     0.949330000000     0.145100000000     0          
C442     C      0.236340000000     0.976000000000     0.207000000000     0          
C443     C      0.212420000000     0.005660000000     0.240500000000     0          
H444     H      0.222200000000     0.023700000000     0.282600000000     0          
C445     C      0.173810000000     0.008140000000     0.210500000000     0          
H446     H      0.157400000000     0.028300000000     0.232100000000     0          
C447     C      0.244900000000     0.917000000000     0.105800000000     0          
C448     C      0.278040000000     0.972740000000     0.236900000000     0          
C449     C      0.307030000000     0.994810000000     0.195400000000     0          
C450     C      0.344980000000     0.994170000000     0.229300000000     0          
H451     H      0.364800000000     0.009000000000     0.201400000000     0          
C452     C      0.353780000000     0.972060000000     0.303300000000     0          
C453     C      0.324920000000     0.950020000000     0.342900000000     0          
H454     H      0.331200000000     0.934500000000     0.392900000000     0          
C455     C      0.286890000000     0.950130000000     0.311200000000     0          
H456     H      0.267300000000     0.935100000000     0.339400000000     0          
C457     C      0.300400000000     0.019200000000     0.115000000000     0          
C458     C      0.393360000000     0.974380000000     0.342800000000     0          
C459     C      0.988500000000     0.025300000000     0.684000000000     0          
O460     O      0.958080000000     0.044500000000     0.709700000000     0          
C461     C      0.028680000000     0.990500000000     0.561300000000     0          
C462     C      0.995800000000     0.011210000000     0.588500000000     0          
C463     C      0.967150000000     0.020600000000     0.526700000000     0          
N464     N      0.937100000000     0.045200000000     0.551900000000     0          
H465     H      0.048400000000     0.984300000000     0.603100000000     0          
H466     H      0.941300000000     0.063800000000     0.591000000000     0          
H467     H      0.913800000000     0.042100000000     0.528900000000     0          
F468     F      0.427700000000     0.778100000000     0.930400000000     0          
F469     F      0.390100000000     0.756300000000     0.838000000000     0          
F470     F      0.397200000000     0.727700000000     0.958900000000     0          
F471     F      0.499100000000     0.784500000000     0.952100000000     0          
F472     F      0.549000000000     0.777700000000     0.874900000000     0          
F473     F      0.532900000000     0.833000000000     0.922900000000     0          
O474     O      0.456790000000     0.605070000000     0.926200000000     0          
O475     O      0.515750000000     0.599890000000     0.861500000000     0          
O476     O      0.501800000000     0.914810000000     0.683600000000     0          
O477     O      0.449460000000     0.902040000000     0.599100000000     0          
O478     O      0.481990000000     0.530500000000     0.886400000000     0          
O479     O      0.510790000000     0.561480000000     0.016560000000     0          
C480     C      0.485150000000     0.618120000000     0.881000000000     0          
C481     C      0.481670000000     0.659340000000     0.850100000000     0          
C482     C      0.452640000000     0.683190000000     0.882600000000     0          
H483     H      0.434600000000     0.673100000000     0.924500000000     0          
C484     C      0.449330000000     0.721740000000     0.854900000000     0          
C485     C      0.476000000000     0.736340000000     0.793000000000     0          
C486     C      0.505660000000     0.712420000000     0.759500000000     0          
H487     H      0.523700000000     0.722200000000     0.717400000000     0          
C488     C      0.508140000000     0.673810000000     0.789500000000     0          
H489     H      0.528300000000     0.657400000000     0.767900000000     0          
C490     C      0.417000000000     0.744900000000     0.894200000000     0          
C491     C      0.472740000000     0.778040000000     0.763100000000     0          
C492     C      0.494810000000     0.807030000000     0.804600000000     0          
C493     C      0.494170000000     0.844980000000     0.770700000000     0          
H494     H      0.509000000000     0.864800000000     0.798600000000     0          
C495     C      0.472060000000     0.853780000000     0.696700000000     0          
C496     C      0.450020000000     0.824920000000     0.657100000000     0          
H497     H      0.434500000000     0.831200000000     0.607100000000     0          
C498     C      0.450130000000     0.786890000000     0.688800000000     0          
H499     H      0.435100000000     0.767300000000     0.660600000000     0          
C500     C      0.519200000000     0.800400000000     0.885000000000     0          
C501     C      0.474380000000     0.893360000000     0.657200000000     0          
F502     F      0.072300000000     0.721900000000     0.930400000000     0          
F503     F      0.109900000000     0.743700000000     0.838000000000     0          
F504     F      0.102800000000     0.772300000000     0.958900000000     0          
F505     F      0.000900000000     0.715500000000     0.952100000000     0          
F506     F      0.951000000000     0.722300000000     0.874900000000     0          
F507     F      0.967100000000     0.667000000000     0.922900000000     0          
O508     O      0.043210000000     0.894930000000     0.926200000000     0          
O509     O      0.984250000000     0.900110000000     0.861500000000     0          
O510     O      0.998200000000     0.585190000000     0.683600000000     0          
O511     O      0.050540000000     0.597960000000     0.599100000000     0          
O512     O      0.018010000000     0.969500000000     0.886400000000     0          
O513     O      0.989210000000     0.938520000000     0.016560000000     0          
C514     C      0.014850000000     0.881880000000     0.881000000000     0          
C515     C      0.018330000000     0.840660000000     0.850100000000     0          
C516     C      0.047360000000     0.816810000000     0.882600000000     0          
H517     H      0.065400000000     0.826900000000     0.924500000000     0          
C518     C      0.050670000000     0.778260000000     0.854900000000     0          
C519     C      0.024000000000     0.763660000000     0.793000000000     0          
C520     C      0.994340000000     0.787580000000     0.759500000000     0          
H521     H      0.976300000000     0.777800000000     0.717400000000     0          
C522     C      0.991860000000     0.826190000000     0.789500000000     0          
H523     H      0.971700000000     0.842600000000     0.767900000000     0          
C524     C      0.083000000000     0.755100000000     0.894200000000     0          
C525     C      0.027260000000     0.721960000000     0.763100000000     0          
C526     C      0.005190000000     0.692970000000     0.804600000000     0          
C527     C      0.005830000000     0.655020000000     0.770700000000     0          
H528     H      0.991000000000     0.635200000000     0.798600000000     0          
C529     C      0.027940000000     0.646220000000     0.696700000000     0          
C530     C      0.049980000000     0.675080000000     0.657100000000     0          
H531     H      0.065500000000     0.668800000000     0.607100000000     0          
C532     C      0.049870000000     0.713110000000     0.688800000000     0          
H533     H      0.064900000000     0.732700000000     0.660600000000     0          
C534     C      0.980800000000     0.699600000000     0.885000000000     0          
C535     C      0.025620000000     0.606640000000     0.657200000000     0          
F536     F      0.778100000000     0.072300000000     0.430400000000     0          
F537     F      0.756300000000     0.109900000000     0.338000000000     0          
F538     F      0.727700000000     0.102800000000     0.458900000000     0          
F539     F      0.784500000000     0.000900000000     0.452100000000     0          
F540     F      0.777700000000     0.951000000000     0.374900000000     0          
F541     F      0.833000000000     0.967100000000     0.422900000000     0          
O542     O      0.605070000000     0.043210000000     0.426200000000     0          
O543     O      0.599890000000     0.984250000000     0.361500000000     0          
O544     O      0.914810000000     0.998200000000     0.183600000000     0          
O545     O      0.902040000000     0.050540000000     0.099100000000     0          
O546     O      0.530500000000     0.018010000000     0.386400000000     0          
O547     O      0.561480000000     0.989210000000     0.516560000000     0          
C548     C      0.618120000000     0.014850000000     0.381000000000     0          
C549     C      0.659340000000     0.018330000000     0.350100000000     0          
C550     C      0.683190000000     0.047360000000     0.382600000000     0          
H551     H      0.673100000000     0.065400000000     0.424500000000     0          
C552     C      0.721740000000     0.050670000000     0.354900000000     0          
C553     C      0.736340000000     0.024000000000     0.293000000000     0          
C554     C      0.712420000000     0.994340000000     0.259500000000     0          
H555     H      0.722200000000     0.976300000000     0.217400000000     0          
C556     C      0.673810000000     0.991860000000     0.289500000000     0          
H557     H      0.657400000000     0.971700000000     0.267900000000     0          
C558     C      0.744900000000     0.083000000000     0.394200000000     0          
C559     C      0.778040000000     0.027260000000     0.263100000000     0          
C560     C      0.807030000000     0.005190000000     0.304600000000     0          
C561     C      0.844980000000     0.005830000000     0.270700000000     0          
H562     H      0.864800000000     0.991000000000     0.298600000000     0          
C563     C      0.853780000000     0.027940000000     0.196700000000     0          
C564     C      0.824920000000     0.049980000000     0.157100000000     0          
H565     H      0.831200000000     0.065500000000     0.107100000000     0          
C566     C      0.786890000000     0.049870000000     0.188800000000     0          
H567     H      0.767300000000     0.064900000000     0.160600000000     0          
C568     C      0.800400000000     0.980800000000     0.385000000000     0          
C569     C      0.893360000000     0.025620000000     0.157200000000     0          
C570     C      0.488500000000     0.974700000000     0.816000000000     0          
O571     O      0.458080000000     0.955500000000     0.790300000000     0          
C572     C      0.528680000000     0.009500000000     0.938700000000     0          
C573     C      0.495800000000     0.988790000000     0.911500000000     0          
C574     C      0.467150000000     0.979400000000     0.973300000000     0          
H575     H      0.444900000000     0.964700000000     0.956600000000     0          
H576     H      0.548400000000     0.015700000000     0.896900000000     0          
F577     F      0.721900000000     0.427700000000     0.430400000000     0          
F578     F      0.743700000000     0.390100000000     0.338000000000     0          
F579     F      0.772300000000     0.397200000000     0.458900000000     0          
F580     F      0.715500000000     0.499100000000     0.452100000000     0          
F581     F      0.722300000000     0.549000000000     0.374900000000     0          
F582     F      0.667000000000     0.532900000000     0.422900000000     0          
O583     O      0.894930000000     0.456790000000     0.426200000000     0          
O584     O      0.900110000000     0.515750000000     0.361500000000     0          
O585     O      0.585190000000     0.501800000000     0.183600000000     0          
O586     O      0.597960000000     0.449460000000     0.099100000000     0          
O587     O      0.969500000000     0.481990000000     0.386400000000     0          
O588     O      0.938520000000     0.510790000000     0.516560000000     0          
C589     C      0.881880000000     0.485150000000     0.381000000000     0          
C590     C      0.840660000000     0.481670000000     0.350100000000     0          
C591     C      0.816810000000     0.452640000000     0.382600000000     0          
H592     H      0.826900000000     0.434600000000     0.424500000000     0          
C593     C      0.778260000000     0.449330000000     0.354900000000     0          
C594     C      0.763660000000     0.476000000000     0.293000000000     0          
C595     C      0.787580000000     0.505660000000     0.259500000000     0          
H596     H      0.777800000000     0.523700000000     0.217400000000     0          
C597     C      0.826190000000     0.508140000000     0.289500000000     0          
H598     H      0.842600000000     0.528300000000     0.267900000000     0          
C599     C      0.755100000000     0.417000000000     0.394200000000     0          
C600     C      0.721960000000     0.472740000000     0.263100000000     0          
C601     C      0.692970000000     0.494810000000     0.304600000000     0          
C602     C      0.655020000000     0.494170000000     0.270700000000     0          
H603     H      0.635200000000     0.509000000000     0.298600000000     0          
C604     C      0.646220000000     0.472060000000     0.196700000000     0          
C605     C      0.675080000000     0.450020000000     0.157100000000     0          
H606     H      0.668800000000     0.434500000000     0.107100000000     0          
C607     C      0.713110000000     0.450130000000     0.188800000000     0          
H608     H      0.732700000000     0.435100000000     0.160600000000     0          
C609     C      0.699600000000     0.519200000000     0.385000000000     0          
C610     C      0.606640000000     0.474380000000     0.157200000000     0          
O611     O      0.041920000000     0.544500000000     0.790300000000     0          
Zr612    Zr     0.449490000000     0.949490000000     0.500000000000     0          
Zr613    Zr     0.050510000000     0.550510000000     0.500000000000     0          
Zr614    Zr     0.550510000000     0.449490000000     0.000000000000     0          
Zr615    Zr     0.949490000000     0.050510000000     0.000000000000     0          
Zr616    Zr     0.550510000000     0.050510000000     0.500000000000     0          
Zr617    Zr     0.949490000000     0.449490000000     0.500000000000     0          
Zr618    Zr     0.449490000000     0.550510000000     0.000000000000     0          
Zr619    Zr     0.050510000000     0.949490000000     0.000000000000     0          
Zr620    Zr     0.541200000000     0.958800000000     0.401240000000     0          
Zr621    Zr     0.530550000000     0.969450000000     0.632420000000     0          
O622     O      0.515170000000     0.984830000000     0.770500000000     0          
O623     O      0.545320000000     0.954680000000     0.257340000000     0          
Zr624    Zr     0.958800000000     0.541200000000     0.401240000000     0          
Zr625    Zr     0.969450000000     0.530550000000     0.632420000000     0          
O626     O      0.984830000000     0.515170000000     0.770500000000     0          
O627     O      0.954680000000     0.545320000000     0.257340000000     0          
Zr628    Zr     0.541200000000     0.541200000000     0.901240000000     0          
Zr629    Zr     0.530550000000     0.530550000000     0.132420000000     0          
O630     O      0.515170000000     0.515170000000     0.270500000000     0          
O631     O      0.545320000000     0.545320000000     0.757340000000     0          
Zr632    Zr     0.958800000000     0.958800000000     0.901240000000     0          
Zr633    Zr     0.969450000000     0.969450000000     0.132420000000     0          
O634     O      0.984830000000     0.984830000000     0.270500000000     0          
O635     O      0.954680000000     0.954680000000     0.757340000000     0          
Zr636    Zr     0.458800000000     0.458800000000     0.098760000000     0          
Zr637    Zr     0.469450000000     0.469450000000     0.867580000000     0          
O638     O      0.484830000000     0.484830000000     0.729500000000     0          
O639     O      0.454680000000     0.454680000000     0.242660000000     0          
Zr640    Zr     0.041200000000     0.041200000000     0.098760000000     0          
Zr641    Zr     0.030550000000     0.030550000000     0.867580000000     0          
O642     O      0.015170000000     0.015170000000     0.729500000000     0          
O643     O      0.045320000000     0.045320000000     0.242660000000     0          
Zr644    Zr     0.458800000000     0.041200000000     0.598760000000     0          
Zr645    Zr     0.469450000000     0.030550000000     0.367580000000     0          
O646     O      0.484830000000     0.015170000000     0.229500000000     0          
O647     O      0.454680000000     0.045320000000     0.742660000000     0          
Zr648    Zr     0.041200000000     0.458800000000     0.598760000000     0          
Zr649    Zr     0.030550000000     0.469450000000     0.367580000000     0          
O650     O      0.015170000000     0.484830000000     0.229500000000     0          
O651     O      0.045320000000     0.454680000000     0.742660000000     0          


