data_NURDEL

_audit_creation_method RASPA-1.0
_audit_creation_date 2020-12-11
_audit_author_name 'Rocio Bueno-Perez'

_cell_length_a    45.887
_cell_length_b    45.887
_cell_length_c    45.887
_cell_angle_alpha 90
_cell_angle_beta  90
_cell_angle_gamma 90
_cell_volume      96620.4

_symmetry_cell_setting          triclinic
_symmetry_space_group_name_Hall 'P 1'
_symmetry_space_group_name_H-M  'P 1'
_symmetry_Int_Tables_number     1

_symmetry_equiv_pos_as_xyz 'x,y,z'

loop_
_atom_site_label
_atom_site_type_symbol
_atom_site_fract_x
_atom_site_fract_y
_atom_site_fract_z
_atom_site_charge
H1       H      0.795700000000     0.728140000000     0.501030000000     0          
C2       C      0.251920000000     0.499610000000     0.711440000000     0          
H3       H      0.704300000000     0.771860000000     0.501030000000     0          
C4       C      0.251920000000     0.999610000000     0.211440000000     0          
C5       C      0.751920000000     0.499610000000     0.211440000000     0          
C6       C      0.751920000000     0.999610000000     0.711440000000     0          
H7       H      0.704300000000     0.228140000000     0.498970000000     0          
C8       C      0.748080000000     0.499610000000     0.288560000000     0          
H9       H      0.295700000000     0.771860000000     0.498970000000     0          
C10      C      0.748080000000     0.999610000000     0.788560000000     0          
C11      C      0.248080000000     0.499610000000     0.788560000000     0          
C12      C      0.248080000000     0.999610000000     0.288560000000     0          
H13      H      0.795700000000     0.271860000000     0.498970000000     0          
C14      C      0.711440000000     0.748080000000     0.500390000000     0          
C15      C      0.711440000000     0.251920000000     0.499610000000     0          
H16      H      0.498970000000     0.704300000000     0.228140000000     0          
H17      H      0.498970000000     0.204300000000     0.728140000000     0          
H18      H      0.998970000000     0.704300000000     0.728140000000     0          
C19      C      0.788560000000     0.751920000000     0.500390000000     0          
C21      C      0.288560000000     0.748080000000     0.499610000000     0          
H22      H      0.498970000000     0.295700000000     0.771860000000     0          
H23      H      0.498970000000     0.795700000000     0.271860000000     0          
C25      C      0.788560000000     0.248080000000     0.499610000000     0          
H26      H      0.998970000000     0.795700000000     0.771860000000     0          
C27      C      0.499610000000     0.711440000000     0.251920000000     0          
C28      C      0.499610000000     0.211440000000     0.751920000000     0          
C29      C      0.999610000000     0.711440000000     0.751920000000     0          
C30      C      0.999610000000     0.211440000000     0.251920000000     0          
H31      H      0.228140000000     0.498970000000     0.704300000000     0          
H32      H      0.228140000000     0.998970000000     0.204300000000     0          
H33      H      0.728140000000     0.498970000000     0.204300000000     0          
H34      H      0.728140000000     0.998970000000     0.704300000000     0          
C35      C      0.499610000000     0.288560000000     0.748080000000     0          
H36      H      0.771860000000     0.498970000000     0.295700000000     0          
C37      C      0.499610000000     0.788560000000     0.248080000000     0          
H38      H      0.771860000000     0.998970000000     0.795700000000     0          
C39      C      0.999610000000     0.288560000000     0.248080000000     0          
H40      H      0.271860000000     0.498970000000     0.795700000000     0          
C41      C      0.999610000000     0.788560000000     0.748080000000     0          
H42      H      0.271860000000     0.998970000000     0.295700000000     0          
H43      H      0.228140000000     0.295700000000     0.498970000000     0          
H44      H      0.228140000000     0.795700000000     0.998970000000     0          
H45      H      0.728140000000     0.295700000000     0.998970000000     0          
C46      C      0.000390000000     0.248080000000     0.288560000000     0          
C47      C      0.499610000000     0.251920000000     0.288560000000     0          
C48      C      0.499610000000     0.751920000000     0.788560000000     0          
H49      H      0.771860000000     0.204300000000     0.998970000000     0          
C50      C      0.999610000000     0.251920000000     0.788560000000     0          
H51      H      0.271860000000     0.704300000000     0.998970000000     0          
C52      C      0.999610000000     0.751920000000     0.288560000000     0          
H53      H      0.271860000000     0.204300000000     0.498970000000     0          
H54      H      0.228140000000     0.204300000000     0.001030000000     0          
C55      C      0.000390000000     0.251920000000     0.211440000000     0          
H56      H      0.728140000000     0.704300000000     0.001030000000     0          
C57      C      0.499610000000     0.748080000000     0.711440000000     0          
C58      C      0.499610000000     0.248080000000     0.211440000000     0          
H59      H      0.771860000000     0.795700000000     0.001030000000     0          
C60      C      0.999610000000     0.748080000000     0.211440000000     0          
H61      H      0.271860000000     0.295700000000     0.001030000000     0          
C62      C      0.999610000000     0.248080000000     0.711440000000     0          
H63      H      0.271860000000     0.795700000000     0.501030000000     0          
C64      C      0.748080000000     0.211440000000     0.999610000000     0          
C65      C      0.248080000000     0.711440000000     0.999610000000     0          
C66      C      0.248080000000     0.211440000000     0.499610000000     0          
C67      C      0.251920000000     0.211440000000     0.000390000000     0          
C68      C      0.751920000000     0.711440000000     0.000390000000     0          
C69      C      0.251920000000     0.288560000000     0.499610000000     0          
H70      H      0.704300000000     0.498970000000     0.771860000000     0          
C71      C      0.251920000000     0.788560000000     0.999610000000     0          
H72      H      0.704300000000     0.998970000000     0.271860000000     0          
C73      C      0.751920000000     0.288560000000     0.999610000000     0          
H74      H      0.204300000000     0.498970000000     0.271860000000     0          
H75      H      0.204300000000     0.998970000000     0.771860000000     0          
H76      H      0.295700000000     0.498970000000     0.228140000000     0          
C77      C      0.748080000000     0.788560000000     0.000390000000     0          
H78      H      0.295700000000     0.998970000000     0.728140000000     0          
C79      C      0.248080000000     0.288560000000     0.000390000000     0          
H80      H      0.795700000000     0.498970000000     0.728140000000     0          
C81      C      0.248080000000     0.788560000000     0.500390000000     0          
H82      H      0.795700000000     0.998970000000     0.228140000000     0          
H83      H      0.001030000000     0.228140000000     0.204300000000     0          
C84      C      0.711440000000     0.499610000000     0.748080000000     0          
C85      C      0.711440000000     0.999610000000     0.248080000000     0          
C86      C      0.211440000000     0.499610000000     0.248080000000     0          
C87      C      0.211440000000     0.999610000000     0.748080000000     0          
H88      H      0.001030000000     0.271860000000     0.295700000000     0          
H89      H      0.498970000000     0.228140000000     0.295700000000     0          
H90      H      0.498970000000     0.728140000000     0.795700000000     0          
H91      H      0.998970000000     0.228140000000     0.795700000000     0          
H92      H      0.998970000000     0.728140000000     0.295700000000     0          
C93      C      0.288560000000     0.499610000000     0.251920000000     0          
H94      H      0.498970000000     0.771860000000     0.704300000000     0          
C95      C      0.288560000000     0.999610000000     0.751920000000     0          
H96      H      0.498970000000     0.271860000000     0.204300000000     0          
C97      C      0.788560000000     0.499610000000     0.751920000000     0          
H98      H      0.998970000000     0.771860000000     0.204300000000     0          
C99      C      0.788560000000     0.999610000000     0.251920000000     0          
H100     H      0.998970000000     0.271860000000     0.704300000000     0          
C101     C      0.251920000000     0.499610000000     0.288560000000     0          
C102     C      0.251920000000     0.999610000000     0.788560000000     0          
H103     H      0.704300000000     0.271860000000     0.998970000000     0          
C104     C      0.751920000000     0.499610000000     0.788560000000     0          
H105     H      0.204300000000     0.771860000000     0.998970000000     0          
C106     C      0.751920000000     0.999610000000     0.288560000000     0          
H107     H      0.204300000000     0.271860000000     0.498970000000     0          
H108     H      0.295700000000     0.228140000000     0.498970000000     0          
H109     H      0.295700000000     0.728140000000     0.998970000000     0          
H110     H      0.795700000000     0.228140000000     0.998970000000     0          
C111     C      0.748080000000     0.499610000000     0.711440000000     0          
C112     C      0.748080000000     0.999610000000     0.211440000000     0          
H113     H      0.295700000000     0.271860000000     0.001030000000     0          
C114     C      0.248080000000     0.499610000000     0.211440000000     0          
H115     H      0.795700000000     0.771860000000     0.001030000000     0          
C116     C      0.248080000000     0.999610000000     0.711440000000     0          
H117     H      0.704300000000     0.728140000000     0.001030000000     0          
H118     H      0.204300000000     0.228140000000     0.001030000000     0          
H119     H      0.204300000000     0.728140000000     0.501030000000     0          
C120     C      0.288560000000     0.251920000000     0.499610000000     0          
H121     H      0.498970000000     0.704300000000     0.771860000000     0          
C122     C      0.288560000000     0.751920000000     0.999610000000     0          
H123     H      0.498970000000     0.204300000000     0.271860000000     0          
C124     C      0.788560000000     0.251920000000     0.999610000000     0          
H125     H      0.998970000000     0.704300000000     0.271860000000     0          
H126     H      0.998970000000     0.204300000000     0.771860000000     0          
H127     H      0.498970000000     0.295700000000     0.228140000000     0          
C128     C      0.288560000000     0.248080000000     0.000390000000     0          
H129     H      0.498970000000     0.795700000000     0.728140000000     0          
C130     C      0.788560000000     0.748080000000     0.000390000000     0          
H131     H      0.998970000000     0.295700000000     0.728140000000     0          
H132     H      0.998970000000     0.795700000000     0.228140000000     0          
C133     C      0.711440000000     0.248080000000     0.999610000000     0          
C134     C      0.211440000000     0.748080000000     0.999610000000     0          
H135     H      0.001030000000     0.295700000000     0.271860000000     0          
C136     C      0.211440000000     0.248080000000     0.499610000000     0          
C137     C      0.711440000000     0.751920000000     0.000390000000     0          
C138     C      0.211440000000     0.251920000000     0.000390000000     0          
C139     C      0.211440000000     0.751920000000     0.500390000000     0          
H140     H      0.001030000000     0.204300000000     0.228140000000     0          
C141     C      0.499610000000     0.288560000000     0.251920000000     0          
H142     H      0.771860000000     0.498970000000     0.704300000000     0          
C143     C      0.499610000000     0.788560000000     0.751920000000     0          
H144     H      0.771860000000     0.998970000000     0.204300000000     0          
C145     C      0.999610000000     0.288560000000     0.751920000000     0          
H146     H      0.271860000000     0.498970000000     0.204300000000     0          
C147     C      0.999610000000     0.788560000000     0.251920000000     0          
H148     H      0.271860000000     0.998970000000     0.704300000000     0          
H149     H      0.228140000000     0.498970000000     0.295700000000     0          
H150     H      0.228140000000     0.998970000000     0.795700000000     0          
H152     H      0.728140000000     0.498970000000     0.795700000000     0          
H153     H      0.728140000000     0.998970000000     0.295700000000     0          
C154     C      0.499610000000     0.711440000000     0.748080000000     0          
C155     C      0.499610000000     0.211440000000     0.248080000000     0          
C156     C      0.999610000000     0.711440000000     0.248080000000     0          
C157     C      0.999610000000     0.211440000000     0.748080000000     0          
C159     C      0.499610000000     0.251920000000     0.711440000000     0          
H160     H      0.771860000000     0.704300000000     0.501030000000     0          
C161     C      0.499610000000     0.751920000000     0.211440000000     0          
C163     C      0.999610000000     0.751920000000     0.711440000000     0          
H164     H      0.728140000000     0.795700000000     0.501030000000     0          
C165     C      0.499610000000     0.748080000000     0.288560000000     0          
H166     H      0.771860000000     0.295700000000     0.498970000000     0          
C167     C      0.499610000000     0.248080000000     0.788560000000     0          
C168     C      0.999610000000     0.748080000000     0.788560000000     0          
H170     H      0.228140000000     0.704300000000     0.498970000000     0          
H171     H      0.728140000000     0.204300000000     0.498970000000     0          
H172     H      0.704300000000     0.498970000000     0.228140000000     0          
H173     H      0.704300000000     0.998970000000     0.728140000000     0          
H174     H      0.204300000000     0.498970000000     0.728140000000     0          
C175     C      0.751920000000     0.788560000000     0.500390000000     0          
H176     H      0.204300000000     0.998970000000     0.228140000000     0          
C177     C      0.748080000000     0.288560000000     0.499610000000     0          
H178     H      0.295700000000     0.498970000000     0.771860000000     0          
H179     H      0.295700000000     0.998970000000     0.271860000000     0          
H180     H      0.795700000000     0.498970000000     0.271860000000     0          
H181     H      0.795700000000     0.998970000000     0.771860000000     0          
C182     C      0.748080000000     0.711440000000     0.500390000000     0          
C183     C      0.251920000000     0.711440000000     0.499610000000     0          
C184     C      0.751920000000     0.211440000000     0.499610000000     0          
C185     C      0.288560000000     0.499610000000     0.748080000000     0          
H186     H      0.498970000000     0.771860000000     0.295700000000     0          
C187     C      0.288560000000     0.999610000000     0.248080000000     0          
H188     H      0.498970000000     0.271860000000     0.795700000000     0          
C189     C      0.788560000000     0.499610000000     0.248080000000     0          
H190     H      0.998970000000     0.771860000000     0.795700000000     0          
C191     C      0.788560000000     0.999610000000     0.748080000000     0          
H193     H      0.498970000000     0.228140000000     0.704300000000     0          
H194     H      0.498970000000     0.728140000000     0.204300000000     0          
H196     H      0.998970000000     0.728140000000     0.704300000000     0          
C197     C      0.711440000000     0.499610000000     0.251920000000     0          
C198     C      0.711440000000     0.999610000000     0.751920000000     0          
C199     C      0.211440000000     0.499610000000     0.751920000000     0          
C200     C      0.211440000000     0.999610000000     0.251920000000     0          
Zr201    Zr     0.500000000000     0.500000000000     0.553730000000     0          
Zr202    Zr     0.500000000000     0.000000000000     0.053730000000     0          
Zr203    Zr     0.000000000000     0.500000000000     0.053730000000     0          
Zr204    Zr     0.000000000000     0.000000000000     0.553730000000     0          
Zr205    Zr     0.500000000000     0.500000000000     0.446270000000     0          
Zr206    Zr     0.500000000000     0.000000000000     0.946270000000     0          
Zr207    Zr     0.000000000000     0.500000000000     0.946270000000     0          
Zr208    Zr     0.000000000000     0.000000000000     0.446270000000     0          
Zr209    Zr     0.553730000000     0.500000000000     0.500000000000     0          
Zr210    Zr     0.553730000000     0.000000000000     0.000000000000     0          
Zr211    Zr     0.053730000000     0.500000000000     0.000000000000     0          
Zr212    Zr     0.053730000000     0.000000000000     0.500000000000     0          
Zr213    Zr     0.446270000000     0.500000000000     0.500000000000     0          
Zr214    Zr     0.446270000000     0.000000000000     0.000000000000     0          
Zr215    Zr     0.946270000000     0.500000000000     0.000000000000     0          
Zr216    Zr     0.946270000000     0.000000000000     0.500000000000     0          
Zr217    Zr     0.500000000000     0.553730000000     0.500000000000     0          
Zr218    Zr     0.500000000000     0.053730000000     0.000000000000     0          
Zr219    Zr     0.000000000000     0.553730000000     0.000000000000     0          
Zr220    Zr     0.000000000000     0.053730000000     0.500000000000     0          
Zr221    Zr     0.500000000000     0.446270000000     0.500000000000     0          
Zr222    Zr     0.500000000000     0.946270000000     0.000000000000     0          
Zr223    Zr     0.000000000000     0.446270000000     0.000000000000     0          
Zr224    Zr     0.000000000000     0.946270000000     0.500000000000     0          
O225     O      0.473610000000     0.473610000000     0.526390000000     0          
O226     O      0.473610000000     0.973610000000     0.026390000000     0          
O227     O      0.973610000000     0.473610000000     0.026390000000     0          
O228     O      0.973610000000     0.973610000000     0.526390000000     0          
O229     O      0.526390000000     0.526390000000     0.526390000000     0          
O230     O      0.526390000000     0.026390000000     0.026390000000     0          
O231     O      0.026390000000     0.526390000000     0.026390000000     0          
O232     O      0.026390000000     0.026390000000     0.526390000000     0          
O233     O      0.526390000000     0.473610000000     0.473610000000     0          
O234     O      0.526390000000     0.973610000000     0.973610000000     0          
O235     O      0.026390000000     0.473610000000     0.973610000000     0          
O236     O      0.026390000000     0.973610000000     0.473610000000     0          
O237     O      0.473610000000     0.526390000000     0.473610000000     0          
O238     O      0.473610000000     0.026390000000     0.973610000000     0          
O239     O      0.973610000000     0.526390000000     0.973610000000     0          
O240     O      0.973610000000     0.026390000000     0.473610000000     0          
O241     O      0.473610000000     0.473610000000     0.473610000000     0          
O242     O      0.473610000000     0.973610000000     0.973610000000     0          
O243     O      0.973610000000     0.473610000000     0.973610000000     0          
O244     O      0.973610000000     0.973610000000     0.473610000000     0          
O245     O      0.526390000000     0.526390000000     0.473610000000     0          
O246     O      0.526390000000     0.026390000000     0.973610000000     0          
O247     O      0.026390000000     0.526390000000     0.973610000000     0          
O248     O      0.026390000000     0.026390000000     0.473610000000     0          
O249     O      0.473610000000     0.526390000000     0.526390000000     0          
O250     O      0.473610000000     0.026390000000     0.026390000000     0          
O251     O      0.973610000000     0.526390000000     0.026390000000     0          
O252     O      0.973610000000     0.026390000000     0.526390000000     0          
O253     O      0.526390000000     0.473610000000     0.526390000000     0          
O254     O      0.526390000000     0.973610000000     0.026390000000     0          
O255     O      0.026390000000     0.473610000000     0.026390000000     0          
O256     O      0.026390000000     0.973610000000     0.526390000000     0          
O257     O      0.541500000000     0.500000000000     0.578140000000     0          
C258     C      0.621690000000     0.500000000000     0.581040000000     0          
H259     H      0.629740000000     0.500000000000     0.557540000000     0          
C260     C      0.641930000000     0.500000000000     0.604240000000     0          
H261     H      0.666310000000     0.500000000000     0.599460000000     0          
C262     C      0.724710000000     0.500000000000     0.688050000000     0          
C263     C      0.673610000000     0.500000000000     0.673720000000     0          
O264     O      0.541500000000     0.000000000000     0.078140000000     0          
C265     C      0.621690000000     0.000000000000     0.081040000000     0          
H266     H      0.629740000000     0.000000000000     0.057540000000     0          
C267     C      0.641930000000     0.000000000000     0.104240000000     0          
H268     H      0.666310000000     0.000000000000     0.099460000000     0          
C269     C      0.724710000000     0.000000000000     0.188050000000     0          
C270     C      0.673610000000     0.000000000000     0.173720000000     0          
O271     O      0.041500000000     0.500000000000     0.078140000000     0          
C272     C      0.121690000000     0.500000000000     0.081040000000     0          
H273     H      0.129740000000     0.500000000000     0.057540000000     0          
C274     C      0.141930000000     0.500000000000     0.104240000000     0          
H275     H      0.166310000000     0.500000000000     0.099460000000     0          
C276     C      0.224710000000     0.500000000000     0.188050000000     0          
C277     C      0.173610000000     0.500000000000     0.173720000000     0          
O278     O      0.041500000000     0.000000000000     0.578140000000     0          
C279     C      0.121690000000     0.000000000000     0.581040000000     0          
H280     H      0.129740000000     0.000000000000     0.557540000000     0          
C281     C      0.141930000000     0.000000000000     0.604240000000     0          
H282     H      0.166310000000     0.000000000000     0.599460000000     0          
C283     C      0.224710000000     0.000000000000     0.688050000000     0          
C284     C      0.173610000000     0.000000000000     0.673720000000     0          
O285     O      0.458500000000     0.500000000000     0.578140000000     0          
C286     C      0.378310000000     0.500000000000     0.581040000000     0          
H287     H      0.370260000000     0.500000000000     0.557540000000     0          
C288     C      0.358070000000     0.500000000000     0.604240000000     0          
H289     H      0.333690000000     0.500000000000     0.599460000000     0          
C290     C      0.275290000000     0.500000000000     0.688050000000     0          
C291     C      0.326390000000     0.500000000000     0.673720000000     0          
O292     O      0.458500000000     0.000000000000     0.078140000000     0          
C293     C      0.378310000000     0.000000000000     0.081040000000     0          
H294     H      0.370260000000     0.000000000000     0.057540000000     0          
C295     C      0.358070000000     0.000000000000     0.104240000000     0          
H296     H      0.333690000000     0.000000000000     0.099460000000     0          
C297     C      0.275290000000     0.000000000000     0.188050000000     0          
C298     C      0.326390000000     0.000000000000     0.173720000000     0          
O299     O      0.958500000000     0.500000000000     0.078140000000     0          
C300     C      0.878310000000     0.500000000000     0.081040000000     0          
H301     H      0.870260000000     0.500000000000     0.057540000000     0          
C302     C      0.858070000000     0.500000000000     0.104240000000     0          
H303     H      0.833690000000     0.500000000000     0.099460000000     0          
C304     C      0.775290000000     0.500000000000     0.188050000000     0          
C305     C      0.826390000000     0.500000000000     0.173720000000     0          
O306     O      0.958500000000     0.000000000000     0.578140000000     0          
C307     C      0.878310000000     0.000000000000     0.581040000000     0          
H308     H      0.870260000000     0.000000000000     0.557540000000     0          
C309     C      0.858070000000     0.000000000000     0.604240000000     0          
H310     H      0.833690000000     0.000000000000     0.599460000000     0          
C311     C      0.775290000000     0.000000000000     0.688050000000     0          
C312     C      0.826390000000     0.000000000000     0.673720000000     0          
O313     O      0.458500000000     0.500000000000     0.421860000000     0          
C314     C      0.378310000000     0.500000000000     0.418960000000     0          
H315     H      0.370260000000     0.500000000000     0.442460000000     0          
C316     C      0.358070000000     0.500000000000     0.395760000000     0          
H317     H      0.333690000000     0.500000000000     0.400540000000     0          
C318     C      0.275290000000     0.500000000000     0.311950000000     0          
C319     C      0.326390000000     0.500000000000     0.326280000000     0          
O320     O      0.458500000000     0.000000000000     0.921860000000     0          
C321     C      0.378310000000     0.000000000000     0.918960000000     0          
H322     H      0.370260000000     0.000000000000     0.942460000000     0          
C323     C      0.358070000000     0.000000000000     0.895760000000     0          
H324     H      0.333690000000     0.000000000000     0.900540000000     0          
C325     C      0.275290000000     0.000000000000     0.811950000000     0          
C326     C      0.326390000000     0.000000000000     0.826280000000     0          
O327     O      0.958500000000     0.500000000000     0.921860000000     0          
C328     C      0.878310000000     0.500000000000     0.918960000000     0          
H329     H      0.870260000000     0.500000000000     0.942460000000     0          
C330     C      0.858070000000     0.500000000000     0.895760000000     0          
H331     H      0.833690000000     0.500000000000     0.900540000000     0          
C332     C      0.775290000000     0.500000000000     0.811950000000     0          
C333     C      0.826390000000     0.500000000000     0.826280000000     0          
O334     O      0.958500000000     0.000000000000     0.421860000000     0          
C335     C      0.878310000000     0.000000000000     0.418960000000     0          
H336     H      0.870260000000     0.000000000000     0.442460000000     0          
C337     C      0.858070000000     0.000000000000     0.395760000000     0          
H338     H      0.833690000000     0.000000000000     0.400540000000     0          
C339     C      0.775290000000     0.000000000000     0.311950000000     0          
C340     C      0.826390000000     0.000000000000     0.326280000000     0          
O341     O      0.541500000000     0.500000000000     0.421860000000     0          
C342     C      0.621690000000     0.500000000000     0.418960000000     0          
H343     H      0.629740000000     0.500000000000     0.442460000000     0          
C344     C      0.641930000000     0.500000000000     0.395760000000     0          
H345     H      0.666310000000     0.500000000000     0.400540000000     0          
C346     C      0.724710000000     0.500000000000     0.311950000000     0          
C347     C      0.673610000000     0.500000000000     0.326280000000     0          
O348     O      0.541500000000     0.000000000000     0.921860000000     0          
C349     C      0.621690000000     0.000000000000     0.918960000000     0          
H350     H      0.629740000000     0.000000000000     0.942460000000     0          
C351     C      0.641930000000     0.000000000000     0.895760000000     0          
H352     H      0.666310000000     0.000000000000     0.900540000000     0          
C353     C      0.724710000000     0.000000000000     0.811950000000     0          
C354     C      0.673610000000     0.000000000000     0.826280000000     0          
O355     O      0.041500000000     0.500000000000     0.921860000000     0          
C356     C      0.121690000000     0.500000000000     0.918960000000     0          
H357     H      0.129740000000     0.500000000000     0.942460000000     0          
C358     C      0.141930000000     0.500000000000     0.895760000000     0          
H359     H      0.166310000000     0.500000000000     0.900540000000     0          
C360     C      0.224710000000     0.500000000000     0.811950000000     0          
C361     C      0.173610000000     0.500000000000     0.826280000000     0          
O362     O      0.041500000000     0.000000000000     0.421860000000     0          
C363     C      0.121690000000     0.000000000000     0.418960000000     0          
H364     H      0.129740000000     0.000000000000     0.442460000000     0          
C365     C      0.141930000000     0.000000000000     0.395760000000     0          
H366     H      0.166310000000     0.000000000000     0.400540000000     0          
C367     C      0.224710000000     0.000000000000     0.311950000000     0          
C368     C      0.173610000000     0.000000000000     0.326280000000     0          
O369     O      0.578140000000     0.541500000000     0.500000000000     0          
C370     C      0.581040000000     0.621690000000     0.500000000000     0          
H371     H      0.557540000000     0.629740000000     0.500000000000     0          
C372     C      0.604240000000     0.641930000000     0.500000000000     0          
H373     H      0.599460000000     0.666310000000     0.500000000000     0          
C374     C      0.688050000000     0.724710000000     0.500000000000     0          
C375     C      0.673720000000     0.673610000000     0.500000000000     0          
O376     O      0.578140000000     0.041500000000     0.000000000000     0          
C377     C      0.581040000000     0.121690000000     0.000000000000     0          
H378     H      0.557540000000     0.129740000000     0.000000000000     0          
C379     C      0.604240000000     0.141930000000     0.000000000000     0          
H380     H      0.599460000000     0.166310000000     0.000000000000     0          
C381     C      0.688050000000     0.224710000000     0.000000000000     0          
C382     C      0.673720000000     0.173610000000     0.000000000000     0          
O383     O      0.078140000000     0.541500000000     0.000000000000     0          
C384     C      0.081040000000     0.621690000000     0.000000000000     0          
H385     H      0.057540000000     0.629740000000     0.000000000000     0          
C386     C      0.104240000000     0.641930000000     0.000000000000     0          
H387     H      0.099460000000     0.666310000000     0.000000000000     0          
C388     C      0.188050000000     0.724710000000     0.000000000000     0          
C389     C      0.173720000000     0.673610000000     0.000000000000     0          
O390     O      0.078140000000     0.041500000000     0.500000000000     0          
C391     C      0.081040000000     0.121690000000     0.500000000000     0          
H392     H      0.057540000000     0.129740000000     0.500000000000     0          
C393     C      0.104240000000     0.141930000000     0.500000000000     0          
H394     H      0.099460000000     0.166310000000     0.500000000000     0          
C395     C      0.188050000000     0.224710000000     0.500000000000     0          
C396     C      0.173720000000     0.173610000000     0.500000000000     0          
O397     O      0.578140000000     0.458500000000     0.500000000000     0          
C398     C      0.581040000000     0.378310000000     0.500000000000     0          
H399     H      0.557540000000     0.370260000000     0.500000000000     0          
C400     C      0.604240000000     0.358070000000     0.500000000000     0          
H401     H      0.599460000000     0.333690000000     0.500000000000     0          
C402     C      0.688050000000     0.275290000000     0.500000000000     0          
C403     C      0.673720000000     0.326390000000     0.500000000000     0          
O404     O      0.578140000000     0.958500000000     0.000000000000     0          
C405     C      0.581040000000     0.878310000000     0.000000000000     0          
H406     H      0.557540000000     0.870260000000     0.000000000000     0          
C407     C      0.604240000000     0.858070000000     0.000000000000     0          
H408     H      0.599460000000     0.833690000000     0.000000000000     0          
C409     C      0.688050000000     0.775290000000     0.000000000000     0          
C410     C      0.673720000000     0.826390000000     0.000000000000     0          
O411     O      0.078140000000     0.458500000000     0.000000000000     0          
C412     C      0.081040000000     0.378310000000     0.000000000000     0          
H413     H      0.057540000000     0.370260000000     0.000000000000     0          
C414     C      0.104240000000     0.358070000000     0.000000000000     0          
H415     H      0.099460000000     0.333690000000     0.000000000000     0          
C416     C      0.188050000000     0.275290000000     0.000000000000     0          
C417     C      0.173720000000     0.326390000000     0.000000000000     0          
O418     O      0.078140000000     0.958500000000     0.500000000000     0          
C419     C      0.081040000000     0.878310000000     0.500000000000     0          
H420     H      0.057540000000     0.870260000000     0.500000000000     0          
C421     C      0.104240000000     0.858070000000     0.500000000000     0          
H422     H      0.099460000000     0.833690000000     0.500000000000     0          
C423     C      0.188050000000     0.775290000000     0.500000000000     0          
C424     C      0.173720000000     0.826390000000     0.500000000000     0          
O425     O      0.421860000000     0.458500000000     0.500000000000     0          
C426     C      0.418960000000     0.378310000000     0.500000000000     0          
H427     H      0.442460000000     0.370260000000     0.500000000000     0          
C428     C      0.395760000000     0.358070000000     0.500000000000     0          
H429     H      0.400540000000     0.333690000000     0.500000000000     0          
C430     C      0.311950000000     0.275290000000     0.500000000000     0          
C431     C      0.326280000000     0.326390000000     0.500000000000     0          
O432     O      0.421860000000     0.958500000000     0.000000000000     0          
C433     C      0.418960000000     0.878310000000     0.000000000000     0          
H434     H      0.442460000000     0.870260000000     0.000000000000     0          
C435     C      0.395760000000     0.858070000000     0.000000000000     0          
H436     H      0.400540000000     0.833690000000     0.000000000000     0          
C437     C      0.311950000000     0.775290000000     0.000000000000     0          
C438     C      0.326280000000     0.826390000000     0.000000000000     0          
O439     O      0.921860000000     0.458500000000     0.000000000000     0          
C440     C      0.918960000000     0.378310000000     0.000000000000     0          
H441     H      0.942460000000     0.370260000000     0.000000000000     0          
C442     C      0.895760000000     0.358070000000     0.000000000000     0          
H443     H      0.900540000000     0.333690000000     0.000000000000     0          
C444     C      0.811950000000     0.275290000000     0.000000000000     0          
C445     C      0.826280000000     0.326390000000     0.000000000000     0          
O446     O      0.921860000000     0.958500000000     0.500000000000     0          
C447     C      0.918960000000     0.878310000000     0.500000000000     0          
H448     H      0.942460000000     0.870260000000     0.500000000000     0          
C449     C      0.895760000000     0.858070000000     0.500000000000     0          
H450     H      0.900540000000     0.833690000000     0.500000000000     0          
C451     C      0.811950000000     0.775290000000     0.500000000000     0          
C452     C      0.826280000000     0.826390000000     0.500000000000     0          
O453     O      0.421860000000     0.541500000000     0.500000000000     0          
C454     C      0.418960000000     0.621690000000     0.500000000000     0          
H455     H      0.442460000000     0.629740000000     0.500000000000     0          
C456     C      0.395760000000     0.641930000000     0.500000000000     0          
H457     H      0.400540000000     0.666310000000     0.500000000000     0          
C458     C      0.311950000000     0.724710000000     0.500000000000     0          
C459     C      0.326280000000     0.673610000000     0.500000000000     0          
O460     O      0.421860000000     0.041500000000     0.000000000000     0          
C461     C      0.418960000000     0.121690000000     0.000000000000     0          
H462     H      0.442460000000     0.129740000000     0.000000000000     0          
C463     C      0.395760000000     0.141930000000     0.000000000000     0          
H464     H      0.400540000000     0.166310000000     0.000000000000     0          
C465     C      0.311950000000     0.224710000000     0.000000000000     0          
C466     C      0.326280000000     0.173610000000     0.000000000000     0          
O467     O      0.921860000000     0.541500000000     0.000000000000     0          
C468     C      0.918960000000     0.621690000000     0.000000000000     0          
H469     H      0.942460000000     0.629740000000     0.000000000000     0          
C470     C      0.895760000000     0.641930000000     0.000000000000     0          
H471     H      0.900540000000     0.666310000000     0.000000000000     0          
C472     C      0.811950000000     0.724710000000     0.000000000000     0          
C473     C      0.826280000000     0.673610000000     0.000000000000     0          
O474     O      0.921860000000     0.041500000000     0.500000000000     0          
C475     C      0.918960000000     0.121690000000     0.500000000000     0          
H476     H      0.942460000000     0.129740000000     0.500000000000     0          
C477     C      0.895760000000     0.141930000000     0.500000000000     0          
H478     H      0.900540000000     0.166310000000     0.500000000000     0          
C479     C      0.811950000000     0.224710000000     0.500000000000     0          
C480     C      0.826280000000     0.173610000000     0.500000000000     0          
O481     O      0.500000000000     0.578140000000     0.541500000000     0          
C482     C      0.500000000000     0.581040000000     0.621690000000     0          
H483     H      0.500000000000     0.557540000000     0.629740000000     0          
C484     C      0.500000000000     0.604240000000     0.641930000000     0          
H485     H      0.500000000000     0.599460000000     0.666310000000     0          
C486     C      0.500000000000     0.688050000000     0.724710000000     0          
C487     C      0.500000000000     0.673720000000     0.673610000000     0          
O488     O      0.500000000000     0.078140000000     0.041500000000     0          
C489     C      0.500000000000     0.081040000000     0.121690000000     0          
H490     H      0.500000000000     0.057540000000     0.129740000000     0          
C491     C      0.500000000000     0.104240000000     0.141930000000     0          
H492     H      0.500000000000     0.099460000000     0.166310000000     0          
C493     C      0.500000000000     0.188050000000     0.224710000000     0          
C494     C      0.500000000000     0.173720000000     0.173610000000     0          
O495     O      0.000000000000     0.578140000000     0.041500000000     0          
C496     C      0.000000000000     0.581040000000     0.121690000000     0          
H497     H      0.000000000000     0.557540000000     0.129740000000     0          
C498     C      0.000000000000     0.604240000000     0.141930000000     0          
H499     H      0.000000000000     0.599460000000     0.166310000000     0          
C500     C      0.000000000000     0.688050000000     0.224710000000     0          
C501     C      0.000000000000     0.673720000000     0.173610000000     0          
O502     O      0.000000000000     0.078140000000     0.541500000000     0          
C503     C      0.000000000000     0.081040000000     0.621690000000     0          
H504     H      0.000000000000     0.057540000000     0.629740000000     0          
C505     C      0.000000000000     0.104240000000     0.641930000000     0          
H506     H      0.000000000000     0.099460000000     0.666310000000     0          
C507     C      0.000000000000     0.188050000000     0.724710000000     0          
C508     C      0.000000000000     0.173720000000     0.673610000000     0          
O509     O      0.500000000000     0.578140000000     0.458500000000     0          
C510     C      0.500000000000     0.581040000000     0.378310000000     0          
H511     H      0.500000000000     0.557540000000     0.370260000000     0          
C512     C      0.500000000000     0.604240000000     0.358070000000     0          
H513     H      0.500000000000     0.599460000000     0.333690000000     0          
C514     C      0.500000000000     0.688050000000     0.275290000000     0          
C515     C      0.500000000000     0.673720000000     0.326390000000     0          
O516     O      0.500000000000     0.078140000000     0.958500000000     0          
C517     C      0.500000000000     0.081040000000     0.878310000000     0          
H518     H      0.500000000000     0.057540000000     0.870260000000     0          
C519     C      0.500000000000     0.104240000000     0.858070000000     0          
H520     H      0.500000000000     0.099460000000     0.833690000000     0          
C521     C      0.500000000000     0.188050000000     0.775290000000     0          
C522     C      0.500000000000     0.173720000000     0.826390000000     0          
O523     O      0.000000000000     0.578140000000     0.958500000000     0          
C524     C      0.000000000000     0.581040000000     0.878310000000     0          
H525     H      0.000000000000     0.557540000000     0.870260000000     0          
C526     C      0.000000000000     0.604240000000     0.858070000000     0          
H527     H      0.000000000000     0.599460000000     0.833690000000     0          
C528     C      0.000000000000     0.688050000000     0.775290000000     0          
C529     C      0.000000000000     0.673720000000     0.826390000000     0          
O530     O      0.000000000000     0.078140000000     0.458500000000     0          
C531     C      0.000000000000     0.081040000000     0.378310000000     0          
H532     H      0.000000000000     0.057540000000     0.370260000000     0          
C533     C      0.000000000000     0.104240000000     0.358070000000     0          
H534     H      0.000000000000     0.099460000000     0.333690000000     0          
C535     C      0.000000000000     0.188050000000     0.275290000000     0          
C536     C      0.000000000000     0.173720000000     0.326390000000     0          
O537     O      0.500000000000     0.421860000000     0.458500000000     0          
C538     C      0.500000000000     0.418960000000     0.378310000000     0          
H539     H      0.500000000000     0.442460000000     0.370260000000     0          
C540     C      0.500000000000     0.395760000000     0.358070000000     0          
H541     H      0.500000000000     0.400540000000     0.333690000000     0          
C542     C      0.500000000000     0.311950000000     0.275290000000     0          
C543     C      0.500000000000     0.326280000000     0.326390000000     0          
O544     O      0.500000000000     0.921860000000     0.958500000000     0          
C545     C      0.500000000000     0.918960000000     0.878310000000     0          
H546     H      0.500000000000     0.942460000000     0.870260000000     0          
C547     C      0.500000000000     0.895760000000     0.858070000000     0          
H548     H      0.500000000000     0.900540000000     0.833690000000     0          
C549     C      0.500000000000     0.811950000000     0.775290000000     0          
C550     C      0.500000000000     0.826280000000     0.826390000000     0          
O551     O      0.000000000000     0.421860000000     0.958500000000     0          
C552     C      0.000000000000     0.418960000000     0.878310000000     0          
H553     H      0.000000000000     0.442460000000     0.870260000000     0          
C554     C      0.000000000000     0.395760000000     0.858070000000     0          
H555     H      0.000000000000     0.400540000000     0.833690000000     0          
C556     C      0.000000000000     0.311950000000     0.775290000000     0          
C557     C      0.000000000000     0.326280000000     0.826390000000     0          
O558     O      0.000000000000     0.921860000000     0.458500000000     0          
C559     C      0.000000000000     0.918960000000     0.378310000000     0          
H560     H      0.000000000000     0.942460000000     0.370260000000     0          
C561     C      0.000000000000     0.895760000000     0.358070000000     0          
H562     H      0.000000000000     0.900540000000     0.333690000000     0          
C563     C      0.000000000000     0.811950000000     0.275290000000     0          
C564     C      0.000000000000     0.826280000000     0.326390000000     0          
O565     O      0.500000000000     0.421860000000     0.541500000000     0          
C566     C      0.500000000000     0.418960000000     0.621690000000     0          
H567     H      0.500000000000     0.442460000000     0.629740000000     0          
C568     C      0.500000000000     0.395760000000     0.641930000000     0          
H569     H      0.500000000000     0.400540000000     0.666310000000     0          
C570     C      0.500000000000     0.311950000000     0.724710000000     0          
C571     C      0.500000000000     0.326280000000     0.673610000000     0          
O572     O      0.500000000000     0.921860000000     0.041500000000     0          
C573     C      0.500000000000     0.918960000000     0.121690000000     0          
H574     H      0.500000000000     0.942460000000     0.129740000000     0          
C575     C      0.500000000000     0.895760000000     0.141930000000     0          
H576     H      0.500000000000     0.900540000000     0.166310000000     0          
C577     C      0.500000000000     0.811950000000     0.224710000000     0          
C578     C      0.500000000000     0.826280000000     0.173610000000     0          
O579     O      0.000000000000     0.421860000000     0.041500000000     0          
C580     C      0.000000000000     0.418960000000     0.121690000000     0          
H581     H      0.000000000000     0.442460000000     0.129740000000     0          
C582     C      0.000000000000     0.395760000000     0.141930000000     0          
H583     H      0.000000000000     0.400540000000     0.166310000000     0          
C584     C      0.000000000000     0.311950000000     0.224710000000     0          
C585     C      0.000000000000     0.326280000000     0.173610000000     0          
O586     O      0.000000000000     0.921860000000     0.541500000000     0          
C587     C      0.000000000000     0.918960000000     0.621690000000     0          
H588     H      0.000000000000     0.942460000000     0.629740000000     0          
C589     C      0.000000000000     0.895760000000     0.641930000000     0          
H590     H      0.000000000000     0.900540000000     0.666310000000     0          
C591     C      0.000000000000     0.811950000000     0.724710000000     0          
C592     C      0.000000000000     0.826280000000     0.673610000000     0          
O593     O      0.500000000000     0.541500000000     0.421860000000     0          
C594     C      0.500000000000     0.621690000000     0.418960000000     0          
H595     H      0.500000000000     0.629740000000     0.442460000000     0          
C596     C      0.500000000000     0.641930000000     0.395760000000     0          
H597     H      0.500000000000     0.666310000000     0.400540000000     0          
C598     C      0.500000000000     0.724710000000     0.311950000000     0          
O600     O      0.500000000000     0.041500000000     0.921860000000     0          
C601     C      0.500000000000     0.121690000000     0.918960000000     0          
H602     H      0.500000000000     0.129740000000     0.942460000000     0          
C603     C      0.500000000000     0.141930000000     0.895760000000     0          
H604     H      0.500000000000     0.166310000000     0.900540000000     0          
C605     C      0.500000000000     0.224710000000     0.811950000000     0          
O607     O      0.000000000000     0.541500000000     0.921860000000     0          
C608     C      0.000000000000     0.621690000000     0.918960000000     0          
H609     H      0.000000000000     0.629740000000     0.942460000000     0          
C610     C      0.000000000000     0.641930000000     0.895760000000     0          
H611     H      0.000000000000     0.666310000000     0.900540000000     0          
C612     C      0.000000000000     0.724710000000     0.811950000000     0          
O614     O      0.000000000000     0.041500000000     0.421860000000     0          
C615     C      0.000000000000     0.121690000000     0.418960000000     0          
H616     H      0.000000000000     0.129740000000     0.442460000000     0          
C617     C      0.000000000000     0.141930000000     0.395760000000     0          
H618     H      0.000000000000     0.166310000000     0.400540000000     0          
C619     C      0.000000000000     0.224710000000     0.311950000000     0          
O621     O      0.500000000000     0.458500000000     0.421860000000     0          
C622     C      0.500000000000     0.378310000000     0.418960000000     0          
H623     H      0.500000000000     0.370260000000     0.442460000000     0          
C624     C      0.500000000000     0.358070000000     0.395760000000     0          
H625     H      0.500000000000     0.333690000000     0.400540000000     0          
C626     C      0.500000000000     0.275290000000     0.311950000000     0          
O628     O      0.500000000000     0.958500000000     0.921860000000     0          
C629     C      0.500000000000     0.878310000000     0.918960000000     0          
H630     H      0.500000000000     0.870260000000     0.942460000000     0          
C631     C      0.500000000000     0.858070000000     0.895760000000     0          
H632     H      0.500000000000     0.833690000000     0.900540000000     0          
C633     C      0.500000000000     0.775290000000     0.811950000000     0          
O635     O      0.000000000000     0.458500000000     0.921860000000     0          
C636     C      0.000000000000     0.378310000000     0.918960000000     0          
H637     H      0.000000000000     0.370260000000     0.942460000000     0          
C638     C      0.000000000000     0.358070000000     0.895760000000     0          
H639     H      0.000000000000     0.333690000000     0.900540000000     0          
C640     C      0.000000000000     0.275290000000     0.811950000000     0          
O642     O      0.000000000000     0.958500000000     0.421860000000     0          
C643     C      0.000000000000     0.878310000000     0.418960000000     0          
H644     H      0.000000000000     0.870260000000     0.442460000000     0          
C645     C      0.000000000000     0.858070000000     0.395760000000     0          
H646     H      0.000000000000     0.833690000000     0.400540000000     0          
C647     C      0.000000000000     0.775290000000     0.311950000000     0          
O649     O      0.500000000000     0.458500000000     0.578140000000     0          
C650     C      0.500000000000     0.378310000000     0.581040000000     0          
H651     H      0.500000000000     0.370260000000     0.557540000000     0          
C652     C      0.500000000000     0.358070000000     0.604240000000     0          
H653     H      0.500000000000     0.333690000000     0.599460000000     0          
C654     C      0.500000000000     0.275290000000     0.688050000000     0          
O656     O      0.500000000000     0.958500000000     0.078140000000     0          
C657     C      0.500000000000     0.878310000000     0.081040000000     0          
H658     H      0.500000000000     0.870260000000     0.057540000000     0          
C659     C      0.500000000000     0.858070000000     0.104240000000     0          
H660     H      0.500000000000     0.833690000000     0.099460000000     0          
C661     C      0.500000000000     0.775290000000     0.188050000000     0          
O663     O      0.000000000000     0.458500000000     0.078140000000     0          
C664     C      0.000000000000     0.378310000000     0.081040000000     0          
H665     H      0.000000000000     0.370260000000     0.057540000000     0          
C666     C      0.000000000000     0.358070000000     0.104240000000     0          
H667     H      0.000000000000     0.333690000000     0.099460000000     0          
C668     C      0.000000000000     0.275290000000     0.188050000000     0          
O670     O      0.000000000000     0.958500000000     0.578140000000     0          
C671     C      0.000000000000     0.878310000000     0.581040000000     0          
H672     H      0.000000000000     0.870260000000     0.557540000000     0          
C673     C      0.000000000000     0.858070000000     0.604240000000     0          
H674     H      0.000000000000     0.833690000000     0.599460000000     0          
C675     C      0.000000000000     0.775290000000     0.688050000000     0          
O677     O      0.500000000000     0.541500000000     0.578140000000     0          
C678     C      0.500000000000     0.621690000000     0.581040000000     0          
H679     H      0.500000000000     0.629740000000     0.557540000000     0          
C680     C      0.500000000000     0.641930000000     0.604240000000     0          
H681     H      0.500000000000     0.666310000000     0.599460000000     0          
C682     C      0.500000000000     0.724710000000     0.688050000000     0          
O684     O      0.500000000000     0.041500000000     0.078140000000     0          
C685     C      0.500000000000     0.121690000000     0.081040000000     0          
H686     H      0.500000000000     0.129740000000     0.057540000000     0          
C687     C      0.500000000000     0.141930000000     0.104240000000     0          
H688     H      0.500000000000     0.166310000000     0.099460000000     0          
C689     C      0.500000000000     0.224710000000     0.188050000000     0          
O691     O      0.000000000000     0.541500000000     0.078140000000     0          
C692     C      0.000000000000     0.621690000000     0.081040000000     0          
H693     H      0.000000000000     0.629740000000     0.057540000000     0          
C694     C      0.000000000000     0.641930000000     0.104240000000     0          
H695     H      0.000000000000     0.666310000000     0.099460000000     0          
C696     C      0.000000000000     0.724710000000     0.188050000000     0          
O698     O      0.000000000000     0.041500000000     0.578140000000     0          
C699     C      0.000000000000     0.121690000000     0.581040000000     0          
H700     H      0.000000000000     0.129740000000     0.557540000000     0          
C701     C      0.000000000000     0.141930000000     0.604240000000     0          
H702     H      0.000000000000     0.166310000000     0.599460000000     0          
C703     C      0.000000000000     0.224710000000     0.688050000000     0          
O705     O      0.541500000000     0.578140000000     0.500000000000     0          
C706     C      0.621690000000     0.581040000000     0.500000000000     0          
H707     H      0.629740000000     0.557540000000     0.500000000000     0          
C708     C      0.641930000000     0.604240000000     0.500000000000     0          
H709     H      0.666310000000     0.599460000000     0.500000000000     0          
C710     C      0.724710000000     0.688050000000     0.500000000000     0          
O712     O      0.541500000000     0.078140000000     0.000000000000     0          
C713     C      0.621690000000     0.081040000000     0.000000000000     0          
H714     H      0.629740000000     0.057540000000     0.000000000000     0          
C715     C      0.641930000000     0.104240000000     0.000000000000     0          
H716     H      0.666310000000     0.099460000000     0.000000000000     0          
C717     C      0.724710000000     0.188050000000     0.000000000000     0          
O719     O      0.041500000000     0.578140000000     0.000000000000     0          
C720     C      0.121690000000     0.581040000000     0.000000000000     0          
H721     H      0.129740000000     0.557540000000     0.000000000000     0          
C722     C      0.141930000000     0.604240000000     0.000000000000     0          
H723     H      0.166310000000     0.599460000000     0.000000000000     0          
C724     C      0.224710000000     0.688050000000     0.000000000000     0          
O726     O      0.041500000000     0.078140000000     0.500000000000     0          
C727     C      0.121690000000     0.081040000000     0.500000000000     0          
H728     H      0.129740000000     0.057540000000     0.500000000000     0          
C729     C      0.141930000000     0.104240000000     0.500000000000     0          
H730     H      0.166310000000     0.099460000000     0.500000000000     0          
C731     C      0.224710000000     0.188050000000     0.500000000000     0          
O733     O      0.458500000000     0.578140000000     0.500000000000     0          
C734     C      0.378310000000     0.581040000000     0.500000000000     0          
H735     H      0.370260000000     0.557540000000     0.500000000000     0          
C736     C      0.358070000000     0.604240000000     0.500000000000     0          
H737     H      0.333690000000     0.599460000000     0.500000000000     0          
C738     C      0.275290000000     0.688050000000     0.500000000000     0          
O740     O      0.458500000000     0.078140000000     0.000000000000     0          
C741     C      0.378310000000     0.081040000000     0.000000000000     0          
H742     H      0.370260000000     0.057540000000     0.000000000000     0          
C743     C      0.358070000000     0.104240000000     0.000000000000     0          
H744     H      0.333690000000     0.099460000000     0.000000000000     0          
C745     C      0.275290000000     0.188050000000     0.000000000000     0          
O747     O      0.958500000000     0.578140000000     0.000000000000     0          
C748     C      0.878310000000     0.581040000000     0.000000000000     0          
H749     H      0.870260000000     0.557540000000     0.000000000000     0          
C750     C      0.858070000000     0.604240000000     0.000000000000     0          
H751     H      0.833690000000     0.599460000000     0.000000000000     0          
C752     C      0.775290000000     0.688050000000     0.000000000000     0          
O754     O      0.958500000000     0.078140000000     0.500000000000     0          
C755     C      0.878310000000     0.081040000000     0.500000000000     0          
H756     H      0.870260000000     0.057540000000     0.500000000000     0          
C757     C      0.858070000000     0.104240000000     0.500000000000     0          
H758     H      0.833690000000     0.099460000000     0.500000000000     0          
C759     C      0.775290000000     0.188050000000     0.500000000000     0          
O761     O      0.458500000000     0.421860000000     0.500000000000     0          
C762     C      0.378310000000     0.418960000000     0.500000000000     0          
H763     H      0.370260000000     0.442460000000     0.500000000000     0          
C764     C      0.358070000000     0.395760000000     0.500000000000     0          
H765     H      0.333690000000     0.400540000000     0.500000000000     0          
C766     C      0.275290000000     0.311950000000     0.500000000000     0          
O768     O      0.458500000000     0.921860000000     0.000000000000     0          
C769     C      0.378310000000     0.918960000000     0.000000000000     0          
H770     H      0.370260000000     0.942460000000     0.000000000000     0          
C771     C      0.358070000000     0.895760000000     0.000000000000     0          
H772     H      0.333690000000     0.900540000000     0.000000000000     0          
C773     C      0.275290000000     0.811950000000     0.000000000000     0          
O775     O      0.958500000000     0.421860000000     0.000000000000     0          
C776     C      0.878310000000     0.418960000000     0.000000000000     0          
H777     H      0.870260000000     0.442460000000     0.000000000000     0          
C778     C      0.858070000000     0.395760000000     0.000000000000     0          
H779     H      0.833690000000     0.400540000000     0.000000000000     0          
C780     C      0.775290000000     0.311950000000     0.000000000000     0          
O782     O      0.958500000000     0.921860000000     0.500000000000     0          
C783     C      0.878310000000     0.918960000000     0.500000000000     0          
H784     H      0.870260000000     0.942460000000     0.500000000000     0          
C785     C      0.858070000000     0.895760000000     0.500000000000     0          
H786     H      0.833690000000     0.900540000000     0.500000000000     0          
C787     C      0.775290000000     0.811950000000     0.500000000000     0          
O789     O      0.541500000000     0.421860000000     0.500000000000     0          
C790     C      0.621690000000     0.418960000000     0.500000000000     0          
H791     H      0.629740000000     0.442460000000     0.500000000000     0          
C792     C      0.641930000000     0.395760000000     0.500000000000     0          
H793     H      0.666310000000     0.400540000000     0.500000000000     0          
C794     C      0.724710000000     0.311950000000     0.500000000000     0          
O796     O      0.541500000000     0.921860000000     0.000000000000     0          
C797     C      0.621690000000     0.918960000000     0.000000000000     0          
H798     H      0.629740000000     0.942460000000     0.000000000000     0          
C799     C      0.641930000000     0.895760000000     0.000000000000     0          
H800     H      0.666310000000     0.900540000000     0.000000000000     0          
C801     C      0.724710000000     0.811950000000     0.000000000000     0          
O803     O      0.041500000000     0.421860000000     0.000000000000     0          
C804     C      0.121690000000     0.418960000000     0.000000000000     0          
H805     H      0.129740000000     0.442460000000     0.000000000000     0          
C806     C      0.141930000000     0.395760000000     0.000000000000     0          
H807     H      0.166310000000     0.400540000000     0.000000000000     0          
C808     C      0.224710000000     0.311950000000     0.000000000000     0          
O810     O      0.041500000000     0.921860000000     0.500000000000     0          
C811     C      0.121690000000     0.918960000000     0.500000000000     0          
H812     H      0.129740000000     0.942460000000     0.500000000000     0          
C813     C      0.141930000000     0.895760000000     0.500000000000     0          
H814     H      0.166310000000     0.900540000000     0.500000000000     0          
C815     C      0.224710000000     0.811950000000     0.500000000000     0          
O817     O      0.578140000000     0.500000000000     0.458500000000     0          
C818     C      0.581040000000     0.500000000000     0.378310000000     0          
H819     H      0.557540000000     0.500000000000     0.370260000000     0          
C820     C      0.604240000000     0.500000000000     0.358070000000     0          
H821     H      0.599460000000     0.500000000000     0.333690000000     0          
C822     C      0.688050000000     0.500000000000     0.275290000000     0          
O824     O      0.578140000000     0.000000000000     0.958500000000     0          
C825     C      0.581040000000     0.000000000000     0.878310000000     0          
H826     H      0.557540000000     0.000000000000     0.870260000000     0          
C827     C      0.604240000000     0.000000000000     0.858070000000     0          
H828     H      0.599460000000     0.000000000000     0.833690000000     0          
C829     C      0.688050000000     0.000000000000     0.775290000000     0          
O831     O      0.078140000000     0.500000000000     0.958500000000     0          
C832     C      0.081040000000     0.500000000000     0.878310000000     0          
H833     H      0.057540000000     0.500000000000     0.870260000000     0          
C834     C      0.104240000000     0.500000000000     0.858070000000     0          
H835     H      0.099460000000     0.500000000000     0.833690000000     0          
C836     C      0.188050000000     0.500000000000     0.775290000000     0          
O838     O      0.078140000000     0.000000000000     0.458500000000     0          
C839     C      0.081040000000     0.000000000000     0.378310000000     0          
H840     H      0.057540000000     0.000000000000     0.370260000000     0          
C841     C      0.104240000000     0.000000000000     0.358070000000     0          
H842     H      0.099460000000     0.000000000000     0.333690000000     0          
C843     C      0.188050000000     0.000000000000     0.275290000000     0          
O845     O      0.578140000000     0.500000000000     0.541500000000     0          
C846     C      0.581040000000     0.500000000000     0.621690000000     0          
H847     H      0.557540000000     0.500000000000     0.629740000000     0          
C848     C      0.604240000000     0.500000000000     0.641930000000     0          
H849     H      0.599460000000     0.500000000000     0.666310000000     0          
C850     C      0.688050000000     0.500000000000     0.724710000000     0          
O852     O      0.578140000000     0.000000000000     0.041500000000     0          
C853     C      0.581040000000     0.000000000000     0.121690000000     0          
H854     H      0.557540000000     0.000000000000     0.129740000000     0          
C855     C      0.604240000000     0.000000000000     0.141930000000     0          
H856     H      0.599460000000     0.000000000000     0.166310000000     0          
C857     C      0.688050000000     0.000000000000     0.224710000000     0          
O859     O      0.078140000000     0.500000000000     0.041500000000     0          
C860     C      0.081040000000     0.500000000000     0.121690000000     0          
H861     H      0.057540000000     0.500000000000     0.129740000000     0          
C862     C      0.104240000000     0.500000000000     0.141930000000     0          
H863     H      0.099460000000     0.500000000000     0.166310000000     0          
C864     C      0.188050000000     0.500000000000     0.224710000000     0          
O866     O      0.078140000000     0.000000000000     0.541500000000     0          
C867     C      0.081040000000     0.000000000000     0.621690000000     0          
H868     H      0.057540000000     0.000000000000     0.629740000000     0          
C869     C      0.104240000000     0.000000000000     0.641930000000     0          
H870     H      0.099460000000     0.000000000000     0.666310000000     0          
C871     C      0.188050000000     0.000000000000     0.724710000000     0          
O873     O      0.421860000000     0.500000000000     0.541500000000     0          
C874     C      0.418960000000     0.500000000000     0.621690000000     0          
H875     H      0.442460000000     0.500000000000     0.629740000000     0          
C876     C      0.395760000000     0.500000000000     0.641930000000     0          
H877     H      0.400540000000     0.500000000000     0.666310000000     0          
C878     C      0.311950000000     0.500000000000     0.724710000000     0          
O880     O      0.421860000000     0.000000000000     0.041500000000     0          
C881     C      0.418960000000     0.000000000000     0.121690000000     0          
H882     H      0.442460000000     0.000000000000     0.129740000000     0          
C883     C      0.395760000000     0.000000000000     0.141930000000     0          
H884     H      0.400540000000     0.000000000000     0.166310000000     0          
C885     C      0.311950000000     0.000000000000     0.224710000000     0          
O887     O      0.921860000000     0.500000000000     0.041500000000     0          
C888     C      0.918960000000     0.500000000000     0.121690000000     0          
H889     H      0.942460000000     0.500000000000     0.129740000000     0          
C890     C      0.895760000000     0.500000000000     0.141930000000     0          
H891     H      0.900540000000     0.500000000000     0.166310000000     0          
C892     C      0.811950000000     0.500000000000     0.224710000000     0          
O894     O      0.921860000000     0.000000000000     0.541500000000     0          
C895     C      0.918960000000     0.000000000000     0.621690000000     0          
H896     H      0.942460000000     0.000000000000     0.629740000000     0          
C897     C      0.895760000000     0.000000000000     0.641930000000     0          
H898     H      0.900540000000     0.000000000000     0.666310000000     0          
C899     C      0.811950000000     0.000000000000     0.724710000000     0          
O901     O      0.421860000000     0.500000000000     0.458500000000     0          
C902     C      0.418960000000     0.500000000000     0.378310000000     0          
H903     H      0.442460000000     0.500000000000     0.370260000000     0          
C904     C      0.395760000000     0.500000000000     0.358070000000     0          
H905     H      0.400540000000     0.500000000000     0.333690000000     0          
C906     C      0.311950000000     0.500000000000     0.275290000000     0          
O908     O      0.421860000000     0.000000000000     0.958500000000     0          
C909     C      0.418960000000     0.000000000000     0.878310000000     0          
H910     H      0.442460000000     0.000000000000     0.870260000000     0          
C911     C      0.395760000000     0.000000000000     0.858070000000     0          
H912     H      0.400540000000     0.000000000000     0.833690000000     0          
C913     C      0.311950000000     0.000000000000     0.775290000000     0          
O915     O      0.921860000000     0.500000000000     0.958500000000     0          
C916     C      0.918960000000     0.500000000000     0.878310000000     0          
H917     H      0.942460000000     0.500000000000     0.870260000000     0          
C918     C      0.895760000000     0.500000000000     0.858070000000     0          
H919     H      0.900540000000     0.500000000000     0.833690000000     0          
C920     C      0.811950000000     0.500000000000     0.775290000000     0          
O922     O      0.921860000000     0.000000000000     0.458500000000     0          
C923     C      0.918960000000     0.000000000000     0.378310000000     0          
H924     H      0.942460000000     0.000000000000     0.370260000000     0          
C925     C      0.895760000000     0.000000000000     0.358070000000     0          
H926     H      0.900540000000     0.000000000000     0.333690000000     0          
C927     C      0.811950000000     0.000000000000     0.275290000000     0          
C929     C      0.568460000000     0.500000000000     0.568460000000     0          
C930     C      0.591710000000     0.500000000000     0.591710000000     0          
C931     C      0.655910000000     0.500000000000     0.655910000000     0          
C932     C      0.634140000000     0.500000000000     0.634140000000     0          
C933     C      0.695440000000     0.500000000000     0.695440000000     0          
C934     C      0.741080000000     0.500000000000     0.741080000000     0          
C935     C      0.568460000000     0.000000000000     0.068460000000     0          
C936     C      0.591710000000     0.000000000000     0.091710000000     0          
C937     C      0.655910000000     0.000000000000     0.155910000000     0          
C938     C      0.634140000000     0.000000000000     0.134140000000     0          
C939     C      0.695440000000     0.000000000000     0.195440000000     0          
C940     C      0.741080000000     0.000000000000     0.241080000000     0          
C941     C      0.068460000000     0.500000000000     0.068460000000     0          
C942     C      0.091710000000     0.500000000000     0.091710000000     0          
C943     C      0.155910000000     0.500000000000     0.155910000000     0          
C944     C      0.134140000000     0.500000000000     0.134140000000     0          
C945     C      0.195440000000     0.500000000000     0.195440000000     0          
C946     C      0.241080000000     0.500000000000     0.241080000000     0          
C947     C      0.068460000000     0.000000000000     0.568460000000     0          
C948     C      0.091710000000     0.000000000000     0.591710000000     0          
C949     C      0.155910000000     0.000000000000     0.655910000000     0          
C950     C      0.134140000000     0.000000000000     0.634140000000     0          
C951     C      0.195440000000     0.000000000000     0.695440000000     0          
C952     C      0.241080000000     0.000000000000     0.741080000000     0          
C953     C      0.431540000000     0.500000000000     0.568460000000     0          
C954     C      0.408290000000     0.500000000000     0.591710000000     0          
C955     C      0.344090000000     0.500000000000     0.655910000000     0          
C956     C      0.365860000000     0.500000000000     0.634140000000     0          
C957     C      0.304560000000     0.500000000000     0.695440000000     0          
C958     C      0.258920000000     0.500000000000     0.741080000000     0          
C959     C      0.431540000000     0.000000000000     0.068460000000     0          
C960     C      0.408290000000     0.000000000000     0.091710000000     0          
C961     C      0.344090000000     0.000000000000     0.155910000000     0          
C962     C      0.365860000000     0.000000000000     0.134140000000     0          
C963     C      0.304560000000     0.000000000000     0.195440000000     0          
C964     C      0.258920000000     0.000000000000     0.241080000000     0          
C965     C      0.931540000000     0.500000000000     0.068460000000     0          
C966     C      0.908290000000     0.500000000000     0.091710000000     0          
C967     C      0.844090000000     0.500000000000     0.155910000000     0          
C968     C      0.865860000000     0.500000000000     0.134140000000     0          
C969     C      0.804560000000     0.500000000000     0.195440000000     0          
C970     C      0.758920000000     0.500000000000     0.241080000000     0          
C971     C      0.931540000000     0.000000000000     0.568460000000     0          
C972     C      0.908290000000     0.000000000000     0.591710000000     0          
C973     C      0.844090000000     0.000000000000     0.655910000000     0          
C974     C      0.865860000000     0.000000000000     0.634140000000     0          
C975     C      0.804560000000     0.000000000000     0.695440000000     0          
C976     C      0.758920000000     0.000000000000     0.741080000000     0          
C977     C      0.431540000000     0.500000000000     0.431540000000     0          
C978     C      0.408290000000     0.500000000000     0.408290000000     0          
C979     C      0.344090000000     0.500000000000     0.344090000000     0          
C980     C      0.365860000000     0.500000000000     0.365860000000     0          
C981     C      0.304560000000     0.500000000000     0.304560000000     0          
C982     C      0.258920000000     0.500000000000     0.258920000000     0          
C983     C      0.431540000000     0.000000000000     0.931540000000     0          
C984     C      0.408290000000     0.000000000000     0.908290000000     0          
C985     C      0.344090000000     0.000000000000     0.844090000000     0          
C986     C      0.365860000000     0.000000000000     0.865860000000     0          
C987     C      0.304560000000     0.000000000000     0.804560000000     0          
C988     C      0.258920000000     0.000000000000     0.758920000000     0          
C989     C      0.931540000000     0.500000000000     0.931540000000     0          
C990     C      0.908290000000     0.500000000000     0.908290000000     0          
C991     C      0.844090000000     0.500000000000     0.844090000000     0          
C992     C      0.865860000000     0.500000000000     0.865860000000     0          
C993     C      0.804560000000     0.500000000000     0.804560000000     0          
C994     C      0.758920000000     0.500000000000     0.758920000000     0          
C995     C      0.931540000000     0.000000000000     0.431540000000     0          
C996     C      0.908290000000     0.000000000000     0.408290000000     0          
C997     C      0.844090000000     0.000000000000     0.344090000000     0          
C998     C      0.865860000000     0.000000000000     0.365860000000     0          
C999     C      0.804560000000     0.000000000000     0.304560000000     0          
C1000    C      0.758920000000     0.000000000000     0.258920000000     0          
C1001    C      0.568460000000     0.500000000000     0.431540000000     0          
C1002    C      0.591710000000     0.500000000000     0.408290000000     0          
C1003    C      0.655910000000     0.500000000000     0.344090000000     0          
C1004    C      0.634140000000     0.500000000000     0.365860000000     0          
C1005    C      0.695440000000     0.500000000000     0.304560000000     0          
C1006    C      0.741080000000     0.500000000000     0.258920000000     0          
C1007    C      0.568460000000     0.000000000000     0.931540000000     0          
C1008    C      0.591710000000     0.000000000000     0.908290000000     0          
C1009    C      0.655910000000     0.000000000000     0.844090000000     0          
C1010    C      0.634140000000     0.000000000000     0.865860000000     0          
C1011    C      0.695440000000     0.000000000000     0.804560000000     0          
C1012    C      0.741080000000     0.000000000000     0.758920000000     0          
C1013    C      0.068460000000     0.500000000000     0.931540000000     0          
C1014    C      0.091710000000     0.500000000000     0.908290000000     0          
C1015    C      0.155910000000     0.500000000000     0.844090000000     0          
C1016    C      0.134140000000     0.500000000000     0.865860000000     0          
C1017    C      0.195440000000     0.500000000000     0.804560000000     0          
C1018    C      0.241080000000     0.500000000000     0.758920000000     0          
C1019    C      0.068460000000     0.000000000000     0.431540000000     0          
C1020    C      0.091710000000     0.000000000000     0.408290000000     0          
C1021    C      0.155910000000     0.000000000000     0.344090000000     0          
C1022    C      0.134140000000     0.000000000000     0.365860000000     0          
C1023    C      0.195440000000     0.000000000000     0.304560000000     0          
C1024    C      0.241080000000     0.000000000000     0.258920000000     0          
C1025    C      0.568460000000     0.568460000000     0.500000000000     0          
C1026    C      0.591710000000     0.591710000000     0.500000000000     0          
C1027    C      0.655910000000     0.655910000000     0.500000000000     0          
C1028    C      0.634140000000     0.634140000000     0.500000000000     0          
C1029    C      0.695440000000     0.695440000000     0.500000000000     0          
C1030    C      0.741080000000     0.741080000000     0.500000000000     0          
C1031    C      0.568460000000     0.068460000000     0.000000000000     0          
C1032    C      0.591710000000     0.091710000000     0.000000000000     0          
C1033    C      0.655910000000     0.155910000000     0.000000000000     0          
C1034    C      0.634140000000     0.134140000000     0.000000000000     0          
C1035    C      0.695440000000     0.195440000000     0.000000000000     0          
C1036    C      0.741080000000     0.241080000000     0.000000000000     0          
C1037    C      0.068460000000     0.568460000000     0.000000000000     0          
C1038    C      0.091710000000     0.591710000000     0.000000000000     0          
C1039    C      0.155910000000     0.655910000000     0.000000000000     0          
C1040    C      0.134140000000     0.634140000000     0.000000000000     0          
C1041    C      0.195440000000     0.695440000000     0.000000000000     0          
C1042    C      0.241080000000     0.741080000000     0.000000000000     0          
C1043    C      0.068460000000     0.068460000000     0.500000000000     0          
C1044    C      0.091710000000     0.091710000000     0.500000000000     0          
C1045    C      0.155910000000     0.155910000000     0.500000000000     0          
C1046    C      0.134140000000     0.134140000000     0.500000000000     0          
C1047    C      0.195440000000     0.195440000000     0.500000000000     0          
C1048    C      0.241080000000     0.241080000000     0.500000000000     0          
C1049    C      0.568460000000     0.431540000000     0.500000000000     0          
C1050    C      0.591710000000     0.408290000000     0.500000000000     0          
C1051    C      0.655910000000     0.344090000000     0.500000000000     0          
C1052    C      0.634140000000     0.365860000000     0.500000000000     0          
C1053    C      0.695440000000     0.304560000000     0.500000000000     0          
C1054    C      0.741080000000     0.258920000000     0.500000000000     0          
C1055    C      0.568460000000     0.931540000000     0.000000000000     0          
C1056    C      0.591710000000     0.908290000000     0.000000000000     0          
C1057    C      0.655910000000     0.844090000000     0.000000000000     0          
C1058    C      0.634140000000     0.865860000000     0.000000000000     0          
C1059    C      0.695440000000     0.804560000000     0.000000000000     0          
C1060    C      0.741080000000     0.758920000000     0.000000000000     0          
C1061    C      0.068460000000     0.431540000000     0.000000000000     0          
C1062    C      0.091710000000     0.408290000000     0.000000000000     0          
C1063    C      0.155910000000     0.344090000000     0.000000000000     0          
C1064    C      0.134140000000     0.365860000000     0.000000000000     0          
C1065    C      0.195440000000     0.304560000000     0.000000000000     0          
C1066    C      0.241080000000     0.258920000000     0.000000000000     0          
C1067    C      0.068460000000     0.931540000000     0.500000000000     0          
C1068    C      0.091710000000     0.908290000000     0.500000000000     0          
C1069    C      0.155910000000     0.844090000000     0.500000000000     0          
C1070    C      0.134140000000     0.865860000000     0.500000000000     0          
C1071    C      0.195440000000     0.804560000000     0.500000000000     0          
C1072    C      0.241080000000     0.758920000000     0.500000000000     0          
C1073    C      0.431540000000     0.431540000000     0.500000000000     0          
C1074    C      0.408290000000     0.408290000000     0.500000000000     0          
C1075    C      0.344090000000     0.344090000000     0.500000000000     0          
C1076    C      0.365860000000     0.365860000000     0.500000000000     0          
C1077    C      0.304560000000     0.304560000000     0.500000000000     0          
C1078    C      0.258920000000     0.258920000000     0.500000000000     0          
C1079    C      0.431540000000     0.931540000000     0.000000000000     0          
C1080    C      0.408290000000     0.908290000000     0.000000000000     0          
C1081    C      0.344090000000     0.844090000000     0.000000000000     0          
C1082    C      0.365860000000     0.865860000000     0.000000000000     0          
C1083    C      0.304560000000     0.804560000000     0.000000000000     0          
C1084    C      0.258920000000     0.758920000000     0.000000000000     0          
C1085    C      0.931540000000     0.431540000000     0.000000000000     0          
C1086    C      0.908290000000     0.408290000000     0.000000000000     0          
C1087    C      0.844090000000     0.344090000000     0.000000000000     0          
C1088    C      0.865860000000     0.365860000000     0.000000000000     0          
C1089    C      0.804560000000     0.304560000000     0.000000000000     0          
C1090    C      0.758920000000     0.258920000000     0.000000000000     0          
C1091    C      0.931540000000     0.931540000000     0.500000000000     0          
C1092    C      0.908290000000     0.908290000000     0.500000000000     0          
C1093    C      0.844090000000     0.844090000000     0.500000000000     0          
C1094    C      0.865860000000     0.865860000000     0.500000000000     0          
C1095    C      0.804560000000     0.804560000000     0.500000000000     0          
C1096    C      0.758920000000     0.758920000000     0.500000000000     0          
C1097    C      0.431540000000     0.568460000000     0.500000000000     0          
C1098    C      0.408290000000     0.591710000000     0.500000000000     0          
C1099    C      0.344090000000     0.655910000000     0.500000000000     0          
C1100    C      0.365860000000     0.634140000000     0.500000000000     0          
C1101    C      0.304560000000     0.695440000000     0.500000000000     0          
C1102    C      0.258920000000     0.741080000000     0.500000000000     0          
C1103    C      0.431540000000     0.068460000000     0.000000000000     0          
C1104    C      0.408290000000     0.091710000000     0.000000000000     0          
C1105    C      0.344090000000     0.155910000000     0.000000000000     0          
C1106    C      0.365860000000     0.134140000000     0.000000000000     0          
C1107    C      0.304560000000     0.195440000000     0.000000000000     0          
C1108    C      0.258920000000     0.241080000000     0.000000000000     0          
C1109    C      0.931540000000     0.568460000000     0.000000000000     0          
C1110    C      0.908290000000     0.591710000000     0.000000000000     0          
C1111    C      0.844090000000     0.655910000000     0.000000000000     0          
C1112    C      0.865860000000     0.634140000000     0.000000000000     0          
C1113    C      0.804560000000     0.695440000000     0.000000000000     0          
C1114    C      0.758920000000     0.741080000000     0.000000000000     0          
C1115    C      0.931540000000     0.068460000000     0.500000000000     0          
C1116    C      0.908290000000     0.091710000000     0.500000000000     0          
C1117    C      0.844090000000     0.155910000000     0.500000000000     0          
C1118    C      0.865860000000     0.134140000000     0.500000000000     0          
C1119    C      0.804560000000     0.195440000000     0.500000000000     0          
C1120    C      0.758920000000     0.241080000000     0.500000000000     0          
C1121    C      0.500000000000     0.568460000000     0.568460000000     0          
C1122    C      0.500000000000     0.591710000000     0.591710000000     0          
C1123    C      0.500000000000     0.655910000000     0.655910000000     0          
C1124    C      0.500000000000     0.634140000000     0.634140000000     0          
C1125    C      0.500000000000     0.695440000000     0.695440000000     0          
C1126    C      0.500000000000     0.741080000000     0.741080000000     0          
C1127    C      0.500000000000     0.068460000000     0.068460000000     0          
C1128    C      0.500000000000     0.091710000000     0.091710000000     0          
C1129    C      0.500000000000     0.155910000000     0.155910000000     0          
C1130    C      0.500000000000     0.134140000000     0.134140000000     0          
C1131    C      0.500000000000     0.195440000000     0.195440000000     0          
C1132    C      0.500000000000     0.241080000000     0.241080000000     0          
C1133    C      0.000000000000     0.568460000000     0.068460000000     0          
C1134    C      0.000000000000     0.591710000000     0.091710000000     0          
C1135    C      0.000000000000     0.655910000000     0.155910000000     0          
C1136    C      0.000000000000     0.634140000000     0.134140000000     0          
C1137    C      0.000000000000     0.695440000000     0.195440000000     0          
C1138    C      0.000000000000     0.741080000000     0.241080000000     0          
C1139    C      0.000000000000     0.068460000000     0.568460000000     0          
C1140    C      0.000000000000     0.091710000000     0.591710000000     0          
C1141    C      0.000000000000     0.155910000000     0.655910000000     0          
C1142    C      0.000000000000     0.134140000000     0.634140000000     0          
C1143    C      0.000000000000     0.195440000000     0.695440000000     0          
C1144    C      0.000000000000     0.241080000000     0.741080000000     0          
C1145    C      0.500000000000     0.568460000000     0.431540000000     0          
C1146    C      0.500000000000     0.591710000000     0.408290000000     0          
C1147    C      0.500000000000     0.655910000000     0.344090000000     0          
C1148    C      0.500000000000     0.634140000000     0.365860000000     0          
C1149    C      0.500000000000     0.695440000000     0.304560000000     0          
C1150    C      0.500000000000     0.741080000000     0.258920000000     0          
C1151    C      0.500000000000     0.068460000000     0.931540000000     0          
C1152    C      0.500000000000     0.091710000000     0.908290000000     0          
C1153    C      0.500000000000     0.155910000000     0.844090000000     0          
C1154    C      0.500000000000     0.134140000000     0.865860000000     0          
C1155    C      0.500000000000     0.195440000000     0.804560000000     0          
C1156    C      0.500000000000     0.241080000000     0.758920000000     0          
C1157    C      0.000000000000     0.568460000000     0.931540000000     0          
C1158    C      0.000000000000     0.591710000000     0.908290000000     0          
C1159    C      0.000000000000     0.655910000000     0.844090000000     0          
C1160    C      0.000000000000     0.634140000000     0.865860000000     0          
C1161    C      0.000000000000     0.695440000000     0.804560000000     0          
C1162    C      0.000000000000     0.741080000000     0.758920000000     0          
C1163    C      0.000000000000     0.068460000000     0.431540000000     0          
C1164    C      0.000000000000     0.091710000000     0.408290000000     0          
C1165    C      0.000000000000     0.155910000000     0.344090000000     0          
C1166    C      0.000000000000     0.134140000000     0.365860000000     0          
C1167    C      0.000000000000     0.195440000000     0.304560000000     0          
C1168    C      0.000000000000     0.241080000000     0.258920000000     0          
C1169    C      0.500000000000     0.431540000000     0.431540000000     0          
C1170    C      0.500000000000     0.408290000000     0.408290000000     0          
C1171    C      0.500000000000     0.344090000000     0.344090000000     0          
C1172    C      0.500000000000     0.365860000000     0.365860000000     0          
C1173    C      0.500000000000     0.304560000000     0.304560000000     0          
C1174    C      0.500000000000     0.258920000000     0.258920000000     0          
C1175    C      0.500000000000     0.931540000000     0.931540000000     0          
C1176    C      0.500000000000     0.908290000000     0.908290000000     0          
C1177    C      0.500000000000     0.844090000000     0.844090000000     0          
C1178    C      0.500000000000     0.865860000000     0.865860000000     0          
C1179    C      0.500000000000     0.804560000000     0.804560000000     0          
C1180    C      0.500000000000     0.758920000000     0.758920000000     0          
C1181    C      0.000000000000     0.431540000000     0.931540000000     0          
C1182    C      0.000000000000     0.408290000000     0.908290000000     0          
C1183    C      0.000000000000     0.344090000000     0.844090000000     0          
C1184    C      0.000000000000     0.365860000000     0.865860000000     0          
C1185    C      0.000000000000     0.304560000000     0.804560000000     0          
C1186    C      0.000000000000     0.258920000000     0.758920000000     0          
C1187    C      0.000000000000     0.931540000000     0.431540000000     0          
C1188    C      0.000000000000     0.908290000000     0.408290000000     0          
C1189    C      0.000000000000     0.844090000000     0.344090000000     0          
C1190    C      0.000000000000     0.865860000000     0.365860000000     0          
C1191    C      0.000000000000     0.804560000000     0.304560000000     0          
C1192    C      0.000000000000     0.758920000000     0.258920000000     0          
C1193    C      0.500000000000     0.431540000000     0.568460000000     0          
C1194    C      0.500000000000     0.408290000000     0.591710000000     0          
C1195    C      0.500000000000     0.344090000000     0.655910000000     0          
C1196    C      0.500000000000     0.365860000000     0.634140000000     0          
C1197    C      0.500000000000     0.304560000000     0.695440000000     0          
C1198    C      0.500000000000     0.258920000000     0.741080000000     0          
C1199    C      0.500000000000     0.931540000000     0.068460000000     0          
C1200    C      0.500000000000     0.908290000000     0.091710000000     0          
C1201    C      0.500000000000     0.844090000000     0.155910000000     0          
C1202    C      0.500000000000     0.865860000000     0.134140000000     0          
C1203    C      0.500000000000     0.804560000000     0.195440000000     0          
C1204    C      0.500000000000     0.758920000000     0.241080000000     0          
C1205    C      0.000000000000     0.431540000000     0.068460000000     0          
C1206    C      0.000000000000     0.408290000000     0.091710000000     0          
C1207    C      0.000000000000     0.344090000000     0.155910000000     0          
C1208    C      0.000000000000     0.365860000000     0.134140000000     0          
C1209    C      0.000000000000     0.304560000000     0.195440000000     0          
C1210    C      0.000000000000     0.258920000000     0.241080000000     0          
C1211    C      0.000000000000     0.931540000000     0.568460000000     0          
C1212    C      0.000000000000     0.908290000000     0.591710000000     0          
C1213    C      0.000000000000     0.844090000000     0.655910000000     0          
C1214    C      0.000000000000     0.865860000000     0.634140000000     0          
C1215    C      0.000000000000     0.804560000000     0.695440000000     0          
C1216    C      0.000000000000     0.758920000000     0.741080000000     0          
H1217    H      0.164150000000     0.768510000000     0.499700000000     0          
H1218    H      0.231490000000     0.835850000000     0.499700000000     0          
H1219    H      0.231490000000     0.500300000000     0.164150000000     0          
H1220    H      0.268510000000     0.500300000000     0.664150000000     0          
H1221    H      0.768510000000     0.500300000000     0.164150000000     0          
H1222    H      0.268510000000     0.500300000000     0.335850000000     0          
H1223    H      0.731490000000     0.500300000000     0.335850000000     0          
H1224    H      0.231490000000     0.500300000000     0.835850000000     0          
H1225    H      0.664150000000     0.731490000000     0.499700000000     0          
H1226    H      0.664150000000     0.231490000000     0.000300000000     0          
H1227    H      0.164150000000     0.731490000000     0.000300000000     0          
H1228    H      0.164150000000     0.231490000000     0.500300000000     0          
H1229    H      0.664150000000     0.268510000000     0.500300000000     0          
H1230    H      0.664150000000     0.768510000000     0.999700000000     0          
H1231    H      0.164150000000     0.268510000000     0.999700000000     0          
H1232    H      0.335850000000     0.268510000000     0.500300000000     0          
H1233    H      0.335850000000     0.768510000000     0.000300000000     0          
H1234    H      0.835850000000     0.268510000000     0.000300000000     0          
H1235    H      0.835850000000     0.768510000000     0.499700000000     0          
H1236    H      0.335850000000     0.731490000000     0.500300000000     0          
H1237    H      0.335850000000     0.231490000000     0.999700000000     0          
H1238    H      0.835850000000     0.731490000000     0.999700000000     0          
H1239    H      0.835850000000     0.231490000000     0.500300000000     0          
H1240    H      0.500300000000     0.664150000000     0.731490000000     0          
H1241    H      0.500300000000     0.164150000000     0.231490000000     0          
H1242    H      0.000300000000     0.664150000000     0.231490000000     0          
H1243    H      0.000300000000     0.164150000000     0.731490000000     0          
H1244    H      0.500300000000     0.664150000000     0.268510000000     0          
H1245    H      0.500300000000     0.164150000000     0.768510000000     0          
H1246    H      0.000300000000     0.664150000000     0.768510000000     0          
H1247    H      0.500300000000     0.335850000000     0.268510000000     0          
H1248    H      0.500300000000     0.835850000000     0.768510000000     0          
H1249    H      0.000300000000     0.335850000000     0.768510000000     0          
H1250    H      0.000300000000     0.835850000000     0.268510000000     0          
H1251    H      0.500300000000     0.335850000000     0.731490000000     0          
H1252    H      0.500300000000     0.835850000000     0.231490000000     0          
H1253    H      0.000300000000     0.835850000000     0.731490000000     0          
H1254    H      0.500300000000     0.731490000000     0.335850000000     0          
H1255    H      0.500300000000     0.231490000000     0.835850000000     0          
H1256    H      0.000300000000     0.731490000000     0.835850000000     0          
H1257    H      0.500300000000     0.268510000000     0.335850000000     0          
H1258    H      0.500300000000     0.768510000000     0.835850000000     0          
H1259    H      0.000300000000     0.268510000000     0.835850000000     0          
H1260    H      0.000300000000     0.768510000000     0.335850000000     0          
H1261    H      0.500300000000     0.268510000000     0.664150000000     0          
H1262    H      0.500300000000     0.768510000000     0.164150000000     0          
H1263    H      0.000300000000     0.768510000000     0.664150000000     0          
H1264    H      0.500300000000     0.731490000000     0.664150000000     0          
H1265    H      0.500300000000     0.231490000000     0.164150000000     0          
H1266    H      0.000300000000     0.731490000000     0.164150000000     0          
H1267    H      0.000300000000     0.231490000000     0.664150000000     0          
H1268    H      0.731490000000     0.664150000000     0.499700000000     0          
H1269    H      0.731490000000     0.164150000000     0.000300000000     0          
H1270    H      0.231490000000     0.664150000000     0.000300000000     0          
H1271    H      0.231490000000     0.164150000000     0.500300000000     0          
H1272    H      0.268510000000     0.664150000000     0.500300000000     0          
H1273    H      0.268510000000     0.164150000000     0.999700000000     0          
H1274    H      0.768510000000     0.664150000000     0.999700000000     0          
H1275    H      0.768510000000     0.164150000000     0.500300000000     0          
H1276    H      0.268510000000     0.335850000000     0.500300000000     0          
H1277    H      0.268510000000     0.835850000000     0.000300000000     0          
H1278    H      0.768510000000     0.335850000000     0.000300000000     0          
H1279    H      0.768510000000     0.835850000000     0.499700000000     0          
H1280    H      0.731490000000     0.335850000000     0.500300000000     0          
H1281    H      0.731490000000     0.835850000000     0.999700000000     0          
H1282    H      0.231490000000     0.335850000000     0.999700000000     0          
H1283    H      0.664150000000     0.500300000000     0.268510000000     0          
H1284    H      0.164150000000     0.500300000000     0.768510000000     0          
H1285    H      0.164150000000     0.500300000000     0.231490000000     0          
H1286    H      0.335850000000     0.500300000000     0.731490000000     0          
H1287    H      0.835850000000     0.500300000000     0.231490000000     0          
H1288    H      0.335850000000     0.500300000000     0.268510000000     0          
H1289    H      0.731490000000     0.000300000000     0.164150000000     0          
H1290    H      0.231490000000     0.000300000000     0.664150000000     0          
H1291    H      0.268510000000     0.000300000000     0.164150000000     0          
H1292    H      0.768510000000     0.000300000000     0.664150000000     0          
H1293    H      0.268510000000     0.000300000000     0.835850000000     0          
H1294    H      0.768510000000     0.000300000000     0.335850000000     0          
H1295    H      0.731490000000     0.000300000000     0.835850000000     0          
H1296    H      0.231490000000     0.000300000000     0.335850000000     0          
H1297    H      0.664150000000     0.000300000000     0.768510000000     0          
H1298    H      0.164150000000     0.000300000000     0.268510000000     0          
H1299    H      0.664150000000     0.000300000000     0.231490000000     0          
H1300    H      0.164150000000     0.000300000000     0.731490000000     0          
H1301    H      0.335850000000     0.000300000000     0.231490000000     0          
H1302    H      0.835850000000     0.000300000000     0.731490000000     0          
H1303    H      0.335850000000     0.000300000000     0.768510000000     0          
H1304    H      0.835850000000     0.000300000000     0.268510000000     0          
H1305    H      0.731490000000     0.500300000000     0.664150000000     0          
H1306    H      0.768510000000     0.500300000000     0.835850000000     0          
H1307    H      0.664150000000     0.500300000000     0.731490000000     0          
H1308    H      0.835850000000     0.500300000000     0.768510000000     0          


