data_NUSVEE

_audit_creation_method RASPA-1.0
_audit_creation_date 2020-11-2
_audit_author_name 'Rocio Bueno-Perez'

_cell_length_a    38.758
_cell_length_b    38.758
_cell_length_c    38.758
_cell_angle_alpha 90
_cell_angle_beta  90
_cell_angle_gamma 90
_cell_volume      58221.6

_symmetry_cell_setting          triclinic
_symmetry_space_group_name_Hall 'P 1'
_symmetry_space_group_name_H-M  'P 1'
_symmetry_Int_Tables_number     1

_symmetry_equiv_pos_as_xyz 'x,y,z'

loop_
_atom_site_label
_atom_site_type_symbol
_atom_site_fract_x
_atom_site_fract_y
_atom_site_fract_z
_atom_site_charge
C1       C      0.643430000000     0.274320000000     0.226270000000     0          
C2       C      0.680600000000     0.773900000000     0.725520000000     0          
C3       C      0.180600000000     0.273900000000     0.725520000000     0          
C4       C      0.143430000000     0.774320000000     0.226270000000     0          
C5       C      0.356570000000     0.725680000000     0.226270000000     0          
C6       C      0.319400000000     0.226100000000     0.725520000000     0          
C7       C      0.819400000000     0.726100000000     0.725520000000     0          
C8       C      0.856570000000     0.225680000000     0.226270000000     0          
C9       C      0.356570000000     0.274320000000     0.773730000000     0          
C10      C      0.319400000000     0.773900000000     0.274480000000     0          
C11      C      0.819400000000     0.273900000000     0.274480000000     0          
C12      C      0.856570000000     0.774320000000     0.773730000000     0          
C13      C      0.643430000000     0.725680000000     0.773730000000     0          
C14      C      0.680600000000     0.226100000000     0.274480000000     0          
C15      C      0.180600000000     0.726100000000     0.274480000000     0          
C16      C      0.143430000000     0.225680000000     0.773730000000     0          
C17      C      0.226270000000     0.643430000000     0.274320000000     0          
C18      C      0.250440000000     0.199380000000     0.749320000000     0          
C19      C      0.225520000000     0.180600000000     0.773900000000     0          
C20      C      0.750440000000     0.699380000000     0.749320000000     0          
C21      C      0.725520000000     0.680600000000     0.773900000000     0          
C22      C      0.726270000000     0.143430000000     0.274320000000     0          
C23      C      0.226270000000     0.356570000000     0.725680000000     0          
C24      C      0.250440000000     0.800620000000     0.250680000000     0          
C25      C      0.225520000000     0.819400000000     0.226100000000     0          
C26      C      0.750440000000     0.300620000000     0.250680000000     0          
C27      C      0.725520000000     0.319400000000     0.226100000000     0          
C28      C      0.726270000000     0.856570000000     0.725680000000     0          
C29      C      0.773730000000     0.356570000000     0.274320000000     0          
C30      C      0.749560000000     0.800620000000     0.749320000000     0          
C31      C      0.774480000000     0.819400000000     0.773900000000     0          
C32      C      0.249560000000     0.300620000000     0.749320000000     0          
C33      C      0.274480000000     0.319400000000     0.773900000000     0          
C34      C      0.273730000000     0.856570000000     0.274320000000     0          
C35      C      0.773730000000     0.643430000000     0.725680000000     0          
C36      C      0.749560000000     0.199380000000     0.250680000000     0          
C37      C      0.774480000000     0.180600000000     0.226100000000     0          
C38      C      0.249560000000     0.699380000000     0.250680000000     0          
C39      C      0.274480000000     0.680600000000     0.226100000000     0          
C40      C      0.273730000000     0.143430000000     0.725680000000     0          
C41      C      0.274320000000     0.226270000000     0.643430000000     0          
C42      C      0.273900000000     0.725520000000     0.180600000000     0          
C43      C      0.774320000000     0.226270000000     0.143430000000     0          
C44      C      0.773900000000     0.725520000000     0.680600000000     0          
C45      C      0.725680000000     0.226270000000     0.356570000000     0          
C46      C      0.726100000000     0.725520000000     0.819400000000     0          
C47      C      0.225680000000     0.226270000000     0.856570000000     0          
C48      C      0.226100000000     0.725520000000     0.319400000000     0          
C49      C      0.274320000000     0.773730000000     0.356570000000     0          
C50      C      0.273900000000     0.274480000000     0.819400000000     0          
C51      C      0.774320000000     0.773730000000     0.856570000000     0          
C52      C      0.773900000000     0.274480000000     0.319400000000     0          
C53      C      0.725680000000     0.773730000000     0.643430000000     0          
C54      C      0.726100000000     0.274480000000     0.180600000000     0          
C55      C      0.225680000000     0.773730000000     0.143430000000     0          
C56      C      0.226100000000     0.274480000000     0.680600000000     0          
C57      C      0.274320000000     0.643430000000     0.773730000000     0          
C58      C      0.273900000000     0.180600000000     0.274480000000     0          
C59      C      0.773900000000     0.680600000000     0.274480000000     0          
C60      C      0.774320000000     0.143430000000     0.773730000000     0          
C61      C      0.725680000000     0.356570000000     0.773730000000     0          
C62      C      0.726100000000     0.819400000000     0.274480000000     0          
C63      C      0.226100000000     0.319400000000     0.274480000000     0          
C64      C      0.225680000000     0.856570000000     0.773730000000     0          
C65      C      0.274320000000     0.356570000000     0.226270000000     0          
C66      C      0.273900000000     0.819400000000     0.725520000000     0          
C67      C      0.773900000000     0.319400000000     0.725520000000     0          
C68      C      0.774320000000     0.856570000000     0.226270000000     0          
C69      C      0.725680000000     0.643430000000     0.226270000000     0          
C70      C      0.726100000000     0.180600000000     0.725520000000     0          
C71      C      0.226100000000     0.680600000000     0.725520000000     0          
C72      C      0.225680000000     0.143430000000     0.226270000000     0          
C73      C      0.643430000000     0.226270000000     0.725680000000     0          
C74      C      0.699380000000     0.750440000000     0.250680000000     0          
C75      C      0.680600000000     0.725520000000     0.226100000000     0          
C76      C      0.199380000000     0.250440000000     0.250680000000     0          
C77      C      0.180600000000     0.225520000000     0.226100000000     0          
C78      C      0.143430000000     0.726270000000     0.725680000000     0          
C79      C      0.356570000000     0.226270000000     0.274320000000     0          
C80      C      0.300620000000     0.750440000000     0.749320000000     0          
C81      C      0.319400000000     0.725520000000     0.773900000000     0          
C82      C      0.800620000000     0.250440000000     0.749320000000     0          
C83      C      0.819400000000     0.225520000000     0.773900000000     0          
C84      C      0.856570000000     0.726270000000     0.274320000000     0          
C85      C      0.356570000000     0.773730000000     0.725680000000     0          
C86      C      0.300620000000     0.249560000000     0.250680000000     0          
C87      C      0.319400000000     0.274480000000     0.226100000000     0          
C88      C      0.800620000000     0.749560000000     0.250680000000     0          
C89      C      0.819400000000     0.774480000000     0.226100000000     0          
C90      C      0.856570000000     0.273730000000     0.725680000000     0          
C91      C      0.643430000000     0.773730000000     0.274320000000     0          
C92      C      0.699380000000     0.249560000000     0.749320000000     0          
C93      C      0.680600000000     0.274480000000     0.773900000000     0          
C94      C      0.199380000000     0.749560000000     0.749320000000     0          
C95      C      0.180600000000     0.774480000000     0.773900000000     0          
C96      C      0.143430000000     0.273730000000     0.274320000000     0          
C97      C      0.226270000000     0.274320000000     0.356570000000     0          
C98      C      0.250440000000     0.749320000000     0.800620000000     0          
C99      C      0.225520000000     0.773900000000     0.819400000000     0          
C100     C      0.726270000000     0.274320000000     0.856570000000     0          
C101     C      0.750440000000     0.749320000000     0.300620000000     0          
C102     C      0.725520000000     0.773900000000     0.319400000000     0          
C103     C      0.226270000000     0.725680000000     0.643430000000     0          
C104     C      0.250440000000     0.250680000000     0.199380000000     0          
C105     C      0.225520000000     0.226100000000     0.180600000000     0          
C106     C      0.726270000000     0.725680000000     0.143430000000     0          
C107     C      0.750440000000     0.250680000000     0.699380000000     0          
C108     C      0.725520000000     0.226100000000     0.680600000000     0          
C109     C      0.773730000000     0.274320000000     0.643430000000     0          
C110     C      0.749560000000     0.749320000000     0.199380000000     0          
C111     C      0.774480000000     0.773900000000     0.180600000000     0          
C112     C      0.273730000000     0.274320000000     0.143430000000     0          
C113     C      0.249560000000     0.749320000000     0.699380000000     0          
C114     C      0.274480000000     0.773900000000     0.680600000000     0          
C115     C      0.773730000000     0.725680000000     0.356570000000     0          
C116     C      0.749560000000     0.250680000000     0.800620000000     0          
C117     C      0.774480000000     0.226100000000     0.819400000000     0          
C118     C      0.273730000000     0.725680000000     0.856570000000     0          
C119     C      0.249560000000     0.250680000000     0.300620000000     0          
C120     C      0.274480000000     0.226100000000     0.319400000000     0          
C121     C      0.356570000000     0.725680000000     0.773730000000     0          
C122     C      0.319400000000     0.226100000000     0.274480000000     0          
C123     C      0.819400000000     0.726100000000     0.274480000000     0          
C124     C      0.856570000000     0.225680000000     0.773730000000     0          
C125     C      0.643430000000     0.274320000000     0.773730000000     0          
C126     C      0.680600000000     0.773900000000     0.274480000000     0          
C127     C      0.180600000000     0.273900000000     0.274480000000     0          
C128     C      0.143430000000     0.774320000000     0.773730000000     0          
C129     C      0.643430000000     0.725680000000     0.226270000000     0          
C130     C      0.680600000000     0.226100000000     0.725520000000     0          
C131     C      0.180600000000     0.726100000000     0.725520000000     0          
C132     C      0.143430000000     0.225680000000     0.226270000000     0          
C133     C      0.356570000000     0.274320000000     0.226270000000     0          
C134     C      0.319400000000     0.773900000000     0.725520000000     0          
C135     C      0.819400000000     0.273900000000     0.725520000000     0          
C136     C      0.856570000000     0.774320000000     0.226270000000     0          
C137     C      0.773730000000     0.356570000000     0.725680000000     0          
C138     C      0.749560000000     0.800620000000     0.250680000000     0          
C139     C      0.774480000000     0.819400000000     0.226100000000     0          
C140     C      0.249560000000     0.300620000000     0.250680000000     0          
C141     C      0.274480000000     0.319400000000     0.226100000000     0          
C142     C      0.273730000000     0.856570000000     0.725680000000     0          
C143     C      0.773730000000     0.643430000000     0.274320000000     0          
C144     C      0.749560000000     0.199380000000     0.749320000000     0          
C145     C      0.774480000000     0.180600000000     0.773900000000     0          
C146     C      0.249560000000     0.699380000000     0.749320000000     0          
C147     C      0.274480000000     0.680600000000     0.773900000000     0          
C148     C      0.273730000000     0.143430000000     0.274320000000     0          
C149     C      0.226270000000     0.643430000000     0.725680000000     0          
C150     C      0.250440000000     0.199380000000     0.250680000000     0          
C151     C      0.225520000000     0.180600000000     0.226100000000     0          
C152     C      0.750440000000     0.699380000000     0.250680000000     0          
C153     C      0.725520000000     0.680600000000     0.226100000000     0          
C154     C      0.726270000000     0.143430000000     0.725680000000     0          
C155     C      0.226270000000     0.356570000000     0.274320000000     0          
C156     C      0.250440000000     0.800620000000     0.749320000000     0          
C157     C      0.225520000000     0.819400000000     0.773900000000     0          
C158     C      0.750440000000     0.300620000000     0.749320000000     0          
C159     C      0.725520000000     0.319400000000     0.773900000000     0          
C160     C      0.726270000000     0.856570000000     0.274320000000     0          
C161     C      0.725680000000     0.773730000000     0.356570000000     0          
C162     C      0.726100000000     0.274480000000     0.819400000000     0          
C163     C      0.225680000000     0.773730000000     0.856570000000     0          
C164     C      0.226100000000     0.274480000000     0.319400000000     0          
C165     C      0.274320000000     0.773730000000     0.643430000000     0          
C166     C      0.273900000000     0.274480000000     0.180600000000     0          
C167     C      0.774320000000     0.773730000000     0.143430000000     0          
C168     C      0.773900000000     0.274480000000     0.680600000000     0          
C169     C      0.725680000000     0.226270000000     0.643430000000     0          
C170     C      0.726100000000     0.725520000000     0.180600000000     0          
C171     C      0.225680000000     0.226270000000     0.143430000000     0          
C172     C      0.226100000000     0.725520000000     0.680600000000     0          
C173     C      0.274320000000     0.226270000000     0.356570000000     0          
C174     C      0.273900000000     0.725520000000     0.819400000000     0          
C175     C      0.774320000000     0.226270000000     0.856570000000     0          
C176     C      0.773900000000     0.725520000000     0.319400000000     0          
C177     C      0.725680000000     0.356570000000     0.226270000000     0          
C178     C      0.726100000000     0.819400000000     0.725520000000     0          
C179     C      0.226100000000     0.319400000000     0.725520000000     0          
C180     C      0.225680000000     0.856570000000     0.226270000000     0          
C181     C      0.274320000000     0.643430000000     0.226270000000     0          
C182     C      0.273900000000     0.180600000000     0.725520000000     0          
C183     C      0.773900000000     0.680600000000     0.725520000000     0          
C184     C      0.774320000000     0.143430000000     0.226270000000     0          
C185     C      0.725680000000     0.643430000000     0.773730000000     0          
C186     C      0.726100000000     0.180600000000     0.274480000000     0          
C187     C      0.226100000000     0.680600000000     0.274480000000     0          
C188     C      0.225680000000     0.143430000000     0.773730000000     0          
C189     C      0.274320000000     0.356570000000     0.773730000000     0          
C190     C      0.273900000000     0.819400000000     0.274480000000     0          
C191     C      0.773900000000     0.319400000000     0.274480000000     0          
C192     C      0.774320000000     0.856570000000     0.773730000000     0          
C193     C      0.356570000000     0.773730000000     0.274320000000     0          
C194     C      0.300620000000     0.249560000000     0.749320000000     0          
C195     C      0.319400000000     0.274480000000     0.773900000000     0          
C196     C      0.800620000000     0.749560000000     0.749320000000     0          
C197     C      0.819400000000     0.774480000000     0.773900000000     0          
C198     C      0.856570000000     0.273730000000     0.274320000000     0          
C199     C      0.643430000000     0.773730000000     0.725680000000     0          
C200     C      0.699380000000     0.249560000000     0.250680000000     0          
C201     C      0.680600000000     0.274480000000     0.226100000000     0          
C202     C      0.199380000000     0.749560000000     0.250680000000     0          
C203     C      0.180600000000     0.774480000000     0.226100000000     0          
C204     C      0.143430000000     0.273730000000     0.725680000000     0          
C205     C      0.643430000000     0.226270000000     0.274320000000     0          
C206     C      0.699380000000     0.750440000000     0.749320000000     0          
C207     C      0.680600000000     0.725520000000     0.773900000000     0          
C208     C      0.199380000000     0.250440000000     0.749320000000     0          
C209     C      0.180600000000     0.225520000000     0.773900000000     0          
C210     C      0.143430000000     0.726270000000     0.274320000000     0          
C211     C      0.356570000000     0.226270000000     0.725680000000     0          
C212     C      0.300620000000     0.750440000000     0.250680000000     0          
C213     C      0.319400000000     0.725520000000     0.226100000000     0          
C214     C      0.800620000000     0.250440000000     0.250680000000     0          
C215     C      0.819400000000     0.225520000000     0.226100000000     0          
C216     C      0.856570000000     0.726270000000     0.725680000000     0          
C217     C      0.773730000000     0.725680000000     0.643430000000     0          
C218     C      0.749560000000     0.250680000000     0.199380000000     0          
C219     C      0.774480000000     0.226100000000     0.180600000000     0          
C220     C      0.273730000000     0.725680000000     0.143430000000     0          
C221     C      0.249560000000     0.250680000000     0.699380000000     0          
C222     C      0.274480000000     0.226100000000     0.680600000000     0          
C223     C      0.773730000000     0.274320000000     0.356570000000     0          
C224     C      0.749560000000     0.749320000000     0.800620000000     0          
C225     C      0.774480000000     0.773900000000     0.819400000000     0          
C226     C      0.273730000000     0.274320000000     0.856570000000     0          
C227     C      0.249560000000     0.749320000000     0.300620000000     0          
C228     C      0.274480000000     0.773900000000     0.319400000000     0          
C229     C      0.226270000000     0.725680000000     0.356570000000     0          
C230     C      0.250440000000     0.250680000000     0.800620000000     0          
C231     C      0.225520000000     0.226100000000     0.819400000000     0          
C232     C      0.726270000000     0.725680000000     0.856570000000     0          
C233     C      0.750440000000     0.250680000000     0.300620000000     0          
C234     C      0.725520000000     0.226100000000     0.319400000000     0          
C235     C      0.226270000000     0.274320000000     0.643430000000     0          
C236     C      0.250440000000     0.749320000000     0.199380000000     0          
C237     C      0.225520000000     0.773900000000     0.180600000000     0          
C238     C      0.726270000000     0.274320000000     0.143430000000     0          
C239     C      0.750440000000     0.749320000000     0.699380000000     0          
C240     C      0.725520000000     0.773900000000     0.680600000000     0          
C241     C      0.500000000000     0.186100000000     0.186100000000     0          
C242     C      0.500000000000     0.082220000000     0.082220000000     0          
C243     C      0.500000000000     0.108600000000     0.108600000000     0          
C244     C      0.500000000000     0.159900000000     0.159900000000     0          
C245     C      0.500000000000     0.686100000000     0.686100000000     0          
C246     C      0.500000000000     0.582220000000     0.582220000000     0          
C247     C      0.500000000000     0.608600000000     0.608600000000     0          
C248     C      0.500000000000     0.659900000000     0.659900000000     0          
C249     C      0.000000000000     0.186100000000     0.686100000000     0          
C250     C      0.000000000000     0.082220000000     0.582220000000     0          
C251     C      0.000000000000     0.108600000000     0.608600000000     0          
C252     C      0.000000000000     0.159900000000     0.659900000000     0          
C253     C      0.000000000000     0.686100000000     0.186100000000     0          
C254     C      0.000000000000     0.582220000000     0.082220000000     0          
C255     C      0.000000000000     0.608600000000     0.108600000000     0          
C256     C      0.000000000000     0.659900000000     0.159900000000     0          
C257     C      0.500000000000     0.813900000000     0.186100000000     0          
C258     C      0.500000000000     0.917780000000     0.082220000000     0          
C259     C      0.500000000000     0.891400000000     0.108600000000     0          
C260     C      0.500000000000     0.840100000000     0.159900000000     0          
C261     C      0.500000000000     0.313900000000     0.686100000000     0          
C262     C      0.500000000000     0.417780000000     0.582220000000     0          
C263     C      0.500000000000     0.391400000000     0.608600000000     0          
C264     C      0.500000000000     0.340100000000     0.659900000000     0          
C265     C      0.000000000000     0.813900000000     0.686100000000     0          
C266     C      0.000000000000     0.917780000000     0.582220000000     0          
C267     C      0.000000000000     0.891400000000     0.608600000000     0          
C268     C      0.000000000000     0.840100000000     0.659900000000     0          
C269     C      0.000000000000     0.313900000000     0.186100000000     0          
C270     C      0.000000000000     0.417780000000     0.082220000000     0          
C271     C      0.000000000000     0.391400000000     0.108600000000     0          
C272     C      0.000000000000     0.340100000000     0.159900000000     0          
C273     C      0.500000000000     0.186100000000     0.813900000000     0          
C274     C      0.500000000000     0.082220000000     0.917780000000     0          
C275     C      0.500000000000     0.108600000000     0.891400000000     0          
C276     C      0.500000000000     0.159900000000     0.840100000000     0          
C277     C      0.500000000000     0.686100000000     0.313900000000     0          
C278     C      0.500000000000     0.582220000000     0.417780000000     0          
C279     C      0.500000000000     0.608600000000     0.391400000000     0          
C280     C      0.500000000000     0.659900000000     0.340100000000     0          
C281     C      0.000000000000     0.186100000000     0.313900000000     0          
C282     C      0.000000000000     0.082220000000     0.417780000000     0          
C283     C      0.000000000000     0.108600000000     0.391400000000     0          
C284     C      0.000000000000     0.159900000000     0.340100000000     0          
C285     C      0.000000000000     0.686100000000     0.813900000000     0          
C286     C      0.000000000000     0.582220000000     0.917780000000     0          
C287     C      0.000000000000     0.608600000000     0.891400000000     0          
C288     C      0.000000000000     0.659900000000     0.840100000000     0          
C289     C      0.500000000000     0.813900000000     0.813900000000     0          
C290     C      0.500000000000     0.917780000000     0.917780000000     0          
C291     C      0.500000000000     0.891400000000     0.891400000000     0          
C292     C      0.500000000000     0.840100000000     0.840100000000     0          
C293     C      0.500000000000     0.313900000000     0.313900000000     0          
C294     C      0.500000000000     0.417780000000     0.417780000000     0          
C295     C      0.500000000000     0.391400000000     0.391400000000     0          
C296     C      0.500000000000     0.340100000000     0.340100000000     0          
C297     C      0.000000000000     0.813900000000     0.313900000000     0          
C298     C      0.000000000000     0.917780000000     0.417780000000     0          
C299     C      0.000000000000     0.891400000000     0.391400000000     0          
C300     C      0.000000000000     0.840100000000     0.340100000000     0          
C301     C      0.000000000000     0.313900000000     0.813900000000     0          
C302     C      0.000000000000     0.417780000000     0.917780000000     0          
C303     C      0.000000000000     0.391400000000     0.891400000000     0          
C304     C      0.000000000000     0.340100000000     0.840100000000     0          
C305     C      0.186100000000     0.500000000000     0.186100000000     0          
C306     C      0.082220000000     0.500000000000     0.082220000000     0          
C307     C      0.108600000000     0.500000000000     0.108600000000     0          
C308     C      0.159900000000     0.500000000000     0.159900000000     0          
C309     C      0.186100000000     0.000000000000     0.686100000000     0          
C310     C      0.082220000000     0.000000000000     0.582220000000     0          
C311     C      0.108600000000     0.000000000000     0.608600000000     0          
C312     C      0.159900000000     0.000000000000     0.659900000000     0          
C313     C      0.686100000000     0.500000000000     0.686100000000     0          
C314     C      0.582220000000     0.500000000000     0.582220000000     0          
C315     C      0.608600000000     0.500000000000     0.608600000000     0          
C316     C      0.659900000000     0.500000000000     0.659900000000     0          
C317     C      0.686100000000     0.000000000000     0.186100000000     0          
C318     C      0.582220000000     0.000000000000     0.082220000000     0          
C319     C      0.608600000000     0.000000000000     0.108600000000     0          
C320     C      0.659900000000     0.000000000000     0.159900000000     0          
C321     C      0.186100000000     0.500000000000     0.813900000000     0          
C322     C      0.082220000000     0.500000000000     0.917780000000     0          
C323     C      0.108600000000     0.500000000000     0.891400000000     0          
C324     C      0.159900000000     0.500000000000     0.840100000000     0          
C325     C      0.186100000000     0.000000000000     0.313900000000     0          
C326     C      0.082220000000     0.000000000000     0.417780000000     0          
C327     C      0.108600000000     0.000000000000     0.391400000000     0          
C328     C      0.159900000000     0.000000000000     0.340100000000     0          
C329     C      0.686100000000     0.500000000000     0.313900000000     0          
C330     C      0.582220000000     0.500000000000     0.417780000000     0          
C331     C      0.608600000000     0.500000000000     0.391400000000     0          
C332     C      0.659900000000     0.500000000000     0.340100000000     0          
C333     C      0.686100000000     0.000000000000     0.813900000000     0          
C334     C      0.582220000000     0.000000000000     0.917780000000     0          
C335     C      0.608600000000     0.000000000000     0.891400000000     0          
C336     C      0.659900000000     0.000000000000     0.840100000000     0          
C337     C      0.813900000000     0.500000000000     0.186100000000     0          
C338     C      0.917780000000     0.500000000000     0.082220000000     0          
C339     C      0.891400000000     0.500000000000     0.108600000000     0          
C340     C      0.840100000000     0.500000000000     0.159900000000     0          
C341     C      0.813900000000     0.000000000000     0.686100000000     0          
C342     C      0.917780000000     0.000000000000     0.582220000000     0          
C343     C      0.891400000000     0.000000000000     0.608600000000     0          
C344     C      0.840100000000     0.000000000000     0.659900000000     0          
C345     C      0.313900000000     0.500000000000     0.686100000000     0          
C346     C      0.417780000000     0.500000000000     0.582220000000     0          
C347     C      0.391400000000     0.500000000000     0.608600000000     0          
C348     C      0.340100000000     0.500000000000     0.659900000000     0          
C349     C      0.313900000000     0.000000000000     0.186100000000     0          
C350     C      0.417780000000     0.000000000000     0.082220000000     0          
C351     C      0.391400000000     0.000000000000     0.108600000000     0          
C352     C      0.340100000000     0.000000000000     0.159900000000     0          
C353     C      0.813900000000     0.500000000000     0.813900000000     0          
C354     C      0.917780000000     0.500000000000     0.917780000000     0          
C355     C      0.891400000000     0.500000000000     0.891400000000     0          
C356     C      0.840100000000     0.500000000000     0.840100000000     0          
C357     C      0.813900000000     0.000000000000     0.313900000000     0          
C358     C      0.917780000000     0.000000000000     0.417780000000     0          
C359     C      0.891400000000     0.000000000000     0.391400000000     0          
C360     C      0.840100000000     0.000000000000     0.340100000000     0          
C361     C      0.313900000000     0.500000000000     0.313900000000     0          
C362     C      0.417780000000     0.500000000000     0.417780000000     0          
C363     C      0.391400000000     0.500000000000     0.391400000000     0          
C364     C      0.340100000000     0.500000000000     0.340100000000     0          
C365     C      0.313900000000     0.000000000000     0.813900000000     0          
C366     C      0.417780000000     0.000000000000     0.917780000000     0          
C367     C      0.391400000000     0.000000000000     0.891400000000     0          
C368     C      0.340100000000     0.000000000000     0.840100000000     0          
C369     C      0.186100000000     0.186100000000     0.500000000000     0          
C370     C      0.082220000000     0.082220000000     0.500000000000     0          
C371     C      0.108600000000     0.108600000000     0.500000000000     0          
C372     C      0.159900000000     0.159900000000     0.500000000000     0          
C373     C      0.186100000000     0.686100000000     0.000000000000     0          
C374     C      0.082220000000     0.582220000000     0.000000000000     0          
C375     C      0.108600000000     0.608600000000     0.000000000000     0          
C376     C      0.159900000000     0.659900000000     0.000000000000     0          
C377     C      0.686100000000     0.186100000000     0.000000000000     0          
C378     C      0.582220000000     0.082220000000     0.000000000000     0          
C379     C      0.608600000000     0.108600000000     0.000000000000     0          
C380     C      0.659900000000     0.159900000000     0.000000000000     0          
C381     C      0.686100000000     0.686100000000     0.500000000000     0          
C382     C      0.582220000000     0.582220000000     0.500000000000     0          
C383     C      0.608600000000     0.608600000000     0.500000000000     0          
C384     C      0.659900000000     0.659900000000     0.500000000000     0          
C385     C      0.813900000000     0.186100000000     0.500000000000     0          
C386     C      0.917780000000     0.082220000000     0.500000000000     0          
C387     C      0.891400000000     0.108600000000     0.500000000000     0          
C388     C      0.840100000000     0.159900000000     0.500000000000     0          
C389     C      0.813900000000     0.686100000000     0.000000000000     0          
C390     C      0.917780000000     0.582220000000     0.000000000000     0          
C391     C      0.891400000000     0.608600000000     0.000000000000     0          
C392     C      0.840100000000     0.659900000000     0.000000000000     0          
C393     C      0.313900000000     0.186100000000     0.000000000000     0          
C394     C      0.417780000000     0.082220000000     0.000000000000     0          
C395     C      0.391400000000     0.108600000000     0.000000000000     0          
C396     C      0.340100000000     0.159900000000     0.000000000000     0          
C397     C      0.313900000000     0.686100000000     0.500000000000     0          
C398     C      0.417780000000     0.582220000000     0.500000000000     0          
C399     C      0.391400000000     0.608600000000     0.500000000000     0          
C400     C      0.340100000000     0.659900000000     0.500000000000     0          
C401     C      0.186100000000     0.813900000000     0.500000000000     0          
C402     C      0.082220000000     0.917780000000     0.500000000000     0          
C403     C      0.108600000000     0.891400000000     0.500000000000     0          
C404     C      0.159900000000     0.840100000000     0.500000000000     0          
C405     C      0.186100000000     0.313900000000     0.000000000000     0          
C406     C      0.082220000000     0.417780000000     0.000000000000     0          
C407     C      0.108600000000     0.391400000000     0.000000000000     0          
C408     C      0.159900000000     0.340100000000     0.000000000000     0          
C409     C      0.686100000000     0.813900000000     0.000000000000     0          
C410     C      0.582220000000     0.917780000000     0.000000000000     0          
C411     C      0.608600000000     0.891400000000     0.000000000000     0          
C412     C      0.659900000000     0.840100000000     0.000000000000     0          
C413     C      0.686100000000     0.313900000000     0.500000000000     0          
C414     C      0.582220000000     0.417780000000     0.500000000000     0          
C415     C      0.608600000000     0.391400000000     0.500000000000     0          
C416     C      0.659900000000     0.340100000000     0.500000000000     0          
C417     C      0.813900000000     0.813900000000     0.500000000000     0          
C418     C      0.917780000000     0.917780000000     0.500000000000     0          
C419     C      0.891400000000     0.891400000000     0.500000000000     0          
C420     C      0.840100000000     0.840100000000     0.500000000000     0          
C421     C      0.813900000000     0.313900000000     0.000000000000     0          
C422     C      0.917780000000     0.417780000000     0.000000000000     0          
C423     C      0.891400000000     0.391400000000     0.000000000000     0          
C424     C      0.840100000000     0.340100000000     0.000000000000     0          
C425     C      0.313900000000     0.813900000000     0.000000000000     0          
C426     C      0.417780000000     0.917780000000     0.000000000000     0          
C427     C      0.391400000000     0.891400000000     0.000000000000     0          
C428     C      0.340100000000     0.840100000000     0.000000000000     0          
C429     C      0.313900000000     0.313900000000     0.500000000000     0          
C430     C      0.417780000000     0.417780000000     0.500000000000     0          
C431     C      0.391400000000     0.391400000000     0.500000000000     0          
C432     C      0.340100000000     0.340100000000     0.500000000000     0          
C433     C      0.532000000000     0.197300000000     0.197300000000     0          
C434     C      0.564260000000     0.186050000000     0.186050000000     0          
C435     C      0.589400000000     0.207730000000     0.207730000000     0          
C436     C      0.567300000000     0.227800000000     0.227800000000     0          
N437     N      0.532900000000     0.222300000000     0.222300000000     0          
C438     C      0.532000000000     0.697300000000     0.697300000000     0          
C439     C      0.564260000000     0.686050000000     0.686050000000     0          
C440     C      0.589400000000     0.707730000000     0.707730000000     0          
C441     C      0.567300000000     0.727800000000     0.727800000000     0          
N442     N      0.532900000000     0.722300000000     0.722300000000     0          
C443     C      0.032000000000     0.197300000000     0.697300000000     0          
C444     C      0.064260000000     0.186050000000     0.686050000000     0          
C445     C      0.089400000000     0.207730000000     0.707730000000     0          
C446     C      0.067300000000     0.227800000000     0.727800000000     0          
N447     N      0.032900000000     0.222300000000     0.722300000000     0          
C448     C      0.032000000000     0.697300000000     0.197300000000     0          
C449     C      0.064260000000     0.686050000000     0.186050000000     0          
C450     C      0.089400000000     0.707730000000     0.207730000000     0          
C451     C      0.067300000000     0.727800000000     0.227800000000     0          
N452     N      0.032900000000     0.722300000000     0.222300000000     0          
C453     C      0.468000000000     0.802700000000     0.197300000000     0          
C454     C      0.435740000000     0.813950000000     0.186050000000     0          
C455     C      0.410600000000     0.792270000000     0.207730000000     0          
C456     C      0.432700000000     0.772200000000     0.227800000000     0          
N457     N      0.467100000000     0.777700000000     0.222300000000     0          
C458     C      0.468000000000     0.302700000000     0.697300000000     0          
C459     C      0.435740000000     0.313950000000     0.686050000000     0          
C460     C      0.410600000000     0.292270000000     0.707730000000     0          
C461     C      0.432700000000     0.272200000000     0.727800000000     0          
N462     N      0.467100000000     0.277700000000     0.722300000000     0          
C463     C      0.968000000000     0.802700000000     0.697300000000     0          
C464     C      0.935740000000     0.813950000000     0.686050000000     0          
C465     C      0.910600000000     0.792270000000     0.707730000000     0          
C466     C      0.932700000000     0.772200000000     0.727800000000     0          
N467     N      0.967100000000     0.777700000000     0.722300000000     0          
C468     C      0.968000000000     0.302700000000     0.197300000000     0          
C469     C      0.935740000000     0.313950000000     0.186050000000     0          
C470     C      0.910600000000     0.292270000000     0.207730000000     0          
C471     C      0.932700000000     0.272200000000     0.227800000000     0          
N472     N      0.967100000000     0.277700000000     0.222300000000     0          
C473     C      0.468000000000     0.197300000000     0.802700000000     0          
C474     C      0.435740000000     0.186050000000     0.813950000000     0          
C475     C      0.410600000000     0.207730000000     0.792270000000     0          
C476     C      0.432700000000     0.227800000000     0.772200000000     0          
N477     N      0.467100000000     0.222300000000     0.777700000000     0          
C478     C      0.468000000000     0.697300000000     0.302700000000     0          
C479     C      0.435740000000     0.686050000000     0.313950000000     0          
C480     C      0.410600000000     0.707730000000     0.292270000000     0          
C481     C      0.432700000000     0.727800000000     0.272200000000     0          
N482     N      0.467100000000     0.722300000000     0.277700000000     0          
C483     C      0.968000000000     0.197300000000     0.302700000000     0          
C484     C      0.935740000000     0.186050000000     0.313950000000     0          
C485     C      0.910600000000     0.207730000000     0.292270000000     0          
C486     C      0.932700000000     0.227800000000     0.272200000000     0          
N487     N      0.967100000000     0.222300000000     0.277700000000     0          
C488     C      0.968000000000     0.697300000000     0.802700000000     0          
C489     C      0.935740000000     0.686050000000     0.813950000000     0          
C490     C      0.910600000000     0.707730000000     0.792270000000     0          
C491     C      0.932700000000     0.727800000000     0.772200000000     0          
N492     N      0.967100000000     0.722300000000     0.777700000000     0          
C493     C      0.532000000000     0.802700000000     0.802700000000     0          
C494     C      0.564260000000     0.813950000000     0.813950000000     0          
C495     C      0.589400000000     0.792270000000     0.792270000000     0          
C496     C      0.567300000000     0.772200000000     0.772200000000     0          
N497     N      0.532900000000     0.777700000000     0.777700000000     0          
C498     C      0.532000000000     0.302700000000     0.302700000000     0          
C499     C      0.564260000000     0.313950000000     0.313950000000     0          
C500     C      0.589400000000     0.292270000000     0.292270000000     0          
C501     C      0.567300000000     0.272200000000     0.272200000000     0          
N502     N      0.532900000000     0.277700000000     0.277700000000     0          
C503     C      0.032000000000     0.802700000000     0.302700000000     0          
C504     C      0.064260000000     0.813950000000     0.313950000000     0          
C505     C      0.089400000000     0.792270000000     0.292270000000     0          
C506     C      0.067300000000     0.772200000000     0.272200000000     0          
N507     N      0.032900000000     0.777700000000     0.277700000000     0          
C508     C      0.032000000000     0.302700000000     0.802700000000     0          
C509     C      0.064260000000     0.313950000000     0.813950000000     0          
C510     C      0.089400000000     0.292270000000     0.792270000000     0          
C511     C      0.067300000000     0.272200000000     0.772200000000     0          
N512     N      0.032900000000     0.277700000000     0.777700000000     0          
C513     C      0.197300000000     0.532000000000     0.197300000000     0          
C514     C      0.186050000000     0.564260000000     0.186050000000     0          
C515     C      0.207730000000     0.589400000000     0.207730000000     0          
C516     C      0.227800000000     0.567300000000     0.227800000000     0          
N517     N      0.222300000000     0.532900000000     0.222300000000     0          
C518     C      0.197300000000     0.032000000000     0.697300000000     0          
C519     C      0.186050000000     0.064260000000     0.686050000000     0          
C520     C      0.207730000000     0.089400000000     0.707730000000     0          
C521     C      0.227800000000     0.067300000000     0.727800000000     0          
N522     N      0.222300000000     0.032900000000     0.722300000000     0          
C523     C      0.697300000000     0.532000000000     0.697300000000     0          
C524     C      0.686050000000     0.564260000000     0.686050000000     0          
C525     C      0.707730000000     0.589400000000     0.707730000000     0          
C526     C      0.727800000000     0.567300000000     0.727800000000     0          
N527     N      0.722300000000     0.532900000000     0.722300000000     0          
C528     C      0.697300000000     0.032000000000     0.197300000000     0          
C529     C      0.686050000000     0.064260000000     0.186050000000     0          
C530     C      0.707730000000     0.089400000000     0.207730000000     0          
C531     C      0.727800000000     0.067300000000     0.227800000000     0          
N532     N      0.722300000000     0.032900000000     0.222300000000     0          
C533     C      0.197300000000     0.468000000000     0.802700000000     0          
C534     C      0.186050000000     0.435740000000     0.813950000000     0          
C535     C      0.207730000000     0.410600000000     0.792270000000     0          
C536     C      0.227800000000     0.432700000000     0.772200000000     0          
N537     N      0.222300000000     0.467100000000     0.777700000000     0          
C538     C      0.197300000000     0.968000000000     0.302700000000     0          
C539     C      0.186050000000     0.935740000000     0.313950000000     0          
C540     C      0.207730000000     0.910600000000     0.292270000000     0          
C541     C      0.227800000000     0.932700000000     0.272200000000     0          
N542     N      0.222300000000     0.967100000000     0.277700000000     0          
C543     C      0.697300000000     0.468000000000     0.302700000000     0          
C544     C      0.686050000000     0.435740000000     0.313950000000     0          
C545     C      0.707730000000     0.410600000000     0.292270000000     0          
C546     C      0.727800000000     0.432700000000     0.272200000000     0          
N547     N      0.722300000000     0.467100000000     0.277700000000     0          
C548     C      0.697300000000     0.968000000000     0.802700000000     0          
C549     C      0.686050000000     0.935740000000     0.813950000000     0          
C550     C      0.707730000000     0.910600000000     0.792270000000     0          
C551     C      0.727800000000     0.932700000000     0.772200000000     0          
N552     N      0.722300000000     0.967100000000     0.777700000000     0          
C553     C      0.802700000000     0.468000000000     0.197300000000     0          
C554     C      0.813950000000     0.435740000000     0.186050000000     0          
C555     C      0.792270000000     0.410600000000     0.207730000000     0          
C556     C      0.772200000000     0.432700000000     0.227800000000     0          
N557     N      0.777700000000     0.467100000000     0.222300000000     0          
C558     C      0.802700000000     0.968000000000     0.697300000000     0          
C559     C      0.813950000000     0.935740000000     0.686050000000     0          
C560     C      0.792270000000     0.910600000000     0.707730000000     0          
C561     C      0.772200000000     0.932700000000     0.727800000000     0          
N562     N      0.777700000000     0.967100000000     0.722300000000     0          
C563     C      0.302700000000     0.468000000000     0.697300000000     0          
C564     C      0.313950000000     0.435740000000     0.686050000000     0          
C565     C      0.292270000000     0.410600000000     0.707730000000     0          
C566     C      0.272200000000     0.432700000000     0.727800000000     0          
N567     N      0.277700000000     0.467100000000     0.722300000000     0          
C568     C      0.302700000000     0.968000000000     0.197300000000     0          
C569     C      0.313950000000     0.935740000000     0.186050000000     0          
C570     C      0.292270000000     0.910600000000     0.207730000000     0          
C571     C      0.272200000000     0.932700000000     0.227800000000     0          
N572     N      0.277700000000     0.967100000000     0.222300000000     0          
C573     C      0.802700000000     0.532000000000     0.802700000000     0          
C574     C      0.813950000000     0.564260000000     0.813950000000     0          
C575     C      0.792270000000     0.589400000000     0.792270000000     0          
C576     C      0.772200000000     0.567300000000     0.772200000000     0          
N577     N      0.777700000000     0.532900000000     0.777700000000     0          
C578     C      0.802700000000     0.032000000000     0.302700000000     0          
C579     C      0.813950000000     0.064260000000     0.313950000000     0          
C580     C      0.792270000000     0.089400000000     0.292270000000     0          
C581     C      0.772200000000     0.067300000000     0.272200000000     0          
N582     N      0.777700000000     0.032900000000     0.277700000000     0          
C583     C      0.302700000000     0.532000000000     0.302700000000     0          
C584     C      0.313950000000     0.564260000000     0.313950000000     0          
C585     C      0.292270000000     0.589400000000     0.292270000000     0          
C586     C      0.272200000000     0.567300000000     0.272200000000     0          
N587     N      0.277700000000     0.532900000000     0.277700000000     0          
C588     C      0.302700000000     0.032000000000     0.802700000000     0          
C589     C      0.313950000000     0.064260000000     0.813950000000     0          
C590     C      0.292270000000     0.089400000000     0.792270000000     0          
C591     C      0.272200000000     0.067300000000     0.772200000000     0          
N592     N      0.277700000000     0.032900000000     0.777700000000     0          
C593     C      0.197300000000     0.197300000000     0.532000000000     0          
C594     C      0.186050000000     0.186050000000     0.564260000000     0          
C595     C      0.207730000000     0.207730000000     0.589400000000     0          
C596     C      0.227800000000     0.227800000000     0.567300000000     0          
N597     N      0.222300000000     0.222300000000     0.532900000000     0          
C598     C      0.197300000000     0.697300000000     0.032000000000     0          
C599     C      0.186050000000     0.686050000000     0.064260000000     0          
C600     C      0.207730000000     0.707730000000     0.089400000000     0          
C601     C      0.227800000000     0.727800000000     0.067300000000     0          
N602     N      0.222300000000     0.722300000000     0.032900000000     0          
C603     C      0.697300000000     0.197300000000     0.032000000000     0          
C604     C      0.686050000000     0.186050000000     0.064260000000     0          
C605     C      0.707730000000     0.207730000000     0.089400000000     0          
C606     C      0.727800000000     0.227800000000     0.067300000000     0          
N607     N      0.722300000000     0.222300000000     0.032900000000     0          
C608     C      0.697300000000     0.697300000000     0.532000000000     0          
C609     C      0.686050000000     0.686050000000     0.564260000000     0          
C610     C      0.707730000000     0.707730000000     0.589400000000     0          
C611     C      0.727800000000     0.727800000000     0.567300000000     0          
N612     N      0.722300000000     0.722300000000     0.532900000000     0          
C613     C      0.802700000000     0.197300000000     0.468000000000     0          
C614     C      0.813950000000     0.186050000000     0.435740000000     0          
C615     C      0.792270000000     0.207730000000     0.410600000000     0          
C616     C      0.772200000000     0.227800000000     0.432700000000     0          
N617     N      0.777700000000     0.222300000000     0.467100000000     0          
C618     C      0.802700000000     0.697300000000     0.968000000000     0          
C619     C      0.813950000000     0.686050000000     0.935740000000     0          
C620     C      0.792270000000     0.707730000000     0.910600000000     0          
C621     C      0.772200000000     0.727800000000     0.932700000000     0          
N622     N      0.777700000000     0.722300000000     0.967100000000     0          
C623     C      0.302700000000     0.197300000000     0.968000000000     0          
C624     C      0.313950000000     0.186050000000     0.935740000000     0          
C625     C      0.292270000000     0.207730000000     0.910600000000     0          
C626     C      0.272200000000     0.227800000000     0.932700000000     0          
N627     N      0.277700000000     0.222300000000     0.967100000000     0          
C628     C      0.302700000000     0.697300000000     0.468000000000     0          
C629     C      0.313950000000     0.686050000000     0.435740000000     0          
C630     C      0.292270000000     0.707730000000     0.410600000000     0          
C631     C      0.272200000000     0.727800000000     0.432700000000     0          
N632     N      0.277700000000     0.722300000000     0.467100000000     0          
C633     C      0.197300000000     0.802700000000     0.468000000000     0          
C634     C      0.186050000000     0.813950000000     0.435740000000     0          
C635     C      0.207730000000     0.792270000000     0.410600000000     0          
C636     C      0.227800000000     0.772200000000     0.432700000000     0          
N637     N      0.222300000000     0.777700000000     0.467100000000     0          
C638     C      0.197300000000     0.302700000000     0.968000000000     0          
C639     C      0.186050000000     0.313950000000     0.935740000000     0          
C640     C      0.207730000000     0.292270000000     0.910600000000     0          
C641     C      0.227800000000     0.272200000000     0.932700000000     0          
N642     N      0.222300000000     0.277700000000     0.967100000000     0          
C643     C      0.697300000000     0.802700000000     0.968000000000     0          
C644     C      0.686050000000     0.813950000000     0.935740000000     0          
C645     C      0.707730000000     0.792270000000     0.910600000000     0          
C646     C      0.727800000000     0.772200000000     0.932700000000     0          
N647     N      0.722300000000     0.777700000000     0.967100000000     0          
C648     C      0.697300000000     0.302700000000     0.468000000000     0          
C649     C      0.686050000000     0.313950000000     0.435740000000     0          
C650     C      0.707730000000     0.292270000000     0.410600000000     0          
C651     C      0.727800000000     0.272200000000     0.432700000000     0          
N652     N      0.722300000000     0.277700000000     0.467100000000     0          
C653     C      0.802700000000     0.802700000000     0.532000000000     0          
C654     C      0.813950000000     0.813950000000     0.564260000000     0          
C655     C      0.792270000000     0.792270000000     0.589400000000     0          
C656     C      0.772200000000     0.772200000000     0.567300000000     0          
N657     N      0.777700000000     0.777700000000     0.532900000000     0          
C658     C      0.802700000000     0.302700000000     0.032000000000     0          
C659     C      0.813950000000     0.313950000000     0.064260000000     0          
C660     C      0.792270000000     0.292270000000     0.089400000000     0          
C661     C      0.772200000000     0.272200000000     0.067300000000     0          
N662     N      0.777700000000     0.277700000000     0.032900000000     0          
C663     C      0.302700000000     0.802700000000     0.032000000000     0          
C664     C      0.313950000000     0.813950000000     0.064260000000     0          
C665     C      0.292270000000     0.792270000000     0.089400000000     0          
C666     C      0.272200000000     0.772200000000     0.067300000000     0          
N667     N      0.277700000000     0.777700000000     0.032900000000     0          
C668     C      0.302700000000     0.302700000000     0.532000000000     0          
C669     C      0.313950000000     0.313950000000     0.564260000000     0          
C670     C      0.292270000000     0.292270000000     0.589400000000     0          
C671     C      0.272200000000     0.272200000000     0.567300000000     0          
N672     N      0.277700000000     0.277700000000     0.532900000000     0          
C673     C      0.197300000000     0.532000000000     0.802700000000     0          
C674     C      0.186050000000     0.564260000000     0.813950000000     0          
C675     C      0.207730000000     0.589400000000     0.792270000000     0          
C676     C      0.227800000000     0.567300000000     0.772200000000     0          
N677     N      0.222300000000     0.532900000000     0.777700000000     0          
C678     C      0.197300000000     0.032000000000     0.302700000000     0          
C679     C      0.186050000000     0.064260000000     0.313950000000     0          
C680     C      0.207730000000     0.089400000000     0.292270000000     0          
C681     C      0.227800000000     0.067300000000     0.272200000000     0          
N682     N      0.222300000000     0.032900000000     0.277700000000     0          
C683     C      0.697300000000     0.532000000000     0.302700000000     0          
C684     C      0.686050000000     0.564260000000     0.313950000000     0          
C685     C      0.707730000000     0.589400000000     0.292270000000     0          
C686     C      0.727800000000     0.567300000000     0.272200000000     0          
N687     N      0.722300000000     0.532900000000     0.277700000000     0          
C688     C      0.697300000000     0.032000000000     0.802700000000     0          
C689     C      0.686050000000     0.064260000000     0.813950000000     0          
C690     C      0.707730000000     0.089400000000     0.792270000000     0          
C691     C      0.727800000000     0.067300000000     0.772200000000     0          
N692     N      0.722300000000     0.032900000000     0.777700000000     0          
C693     C      0.802700000000     0.468000000000     0.802700000000     0          
C694     C      0.813950000000     0.435740000000     0.813950000000     0          
C695     C      0.792270000000     0.410600000000     0.792270000000     0          
C696     C      0.772200000000     0.432700000000     0.772200000000     0          
N697     N      0.777700000000     0.467100000000     0.777700000000     0          
C698     C      0.802700000000     0.968000000000     0.302700000000     0          
C699     C      0.813950000000     0.935740000000     0.313950000000     0          
C700     C      0.792270000000     0.910600000000     0.292270000000     0          
C701     C      0.772200000000     0.932700000000     0.272200000000     0          
N702     N      0.777700000000     0.967100000000     0.277700000000     0          
C703     C      0.302700000000     0.468000000000     0.302700000000     0          
C704     C      0.313950000000     0.435740000000     0.313950000000     0          
C705     C      0.292270000000     0.410600000000     0.292270000000     0          
C706     C      0.272200000000     0.432700000000     0.272200000000     0          
N707     N      0.277700000000     0.467100000000     0.277700000000     0          
C708     C      0.302700000000     0.968000000000     0.802700000000     0          
C709     C      0.313950000000     0.935740000000     0.813950000000     0          
C710     C      0.292270000000     0.910600000000     0.792270000000     0          
C711     C      0.272200000000     0.932700000000     0.772200000000     0          
N712     N      0.277700000000     0.967100000000     0.777700000000     0          
C713     C      0.197300000000     0.468000000000     0.197300000000     0          
C714     C      0.186050000000     0.435740000000     0.186050000000     0          
C715     C      0.207730000000     0.410600000000     0.207730000000     0          
C716     C      0.227800000000     0.432700000000     0.227800000000     0          
N717     N      0.222300000000     0.467100000000     0.222300000000     0          
C718     C      0.197300000000     0.968000000000     0.697300000000     0          
C719     C      0.186050000000     0.935740000000     0.686050000000     0          
C720     C      0.207730000000     0.910600000000     0.707730000000     0          
C721     C      0.227800000000     0.932700000000     0.727800000000     0          
N722     N      0.222300000000     0.967100000000     0.722300000000     0          
C723     C      0.697300000000     0.468000000000     0.697300000000     0          
C724     C      0.686050000000     0.435740000000     0.686050000000     0          
C725     C      0.707730000000     0.410600000000     0.707730000000     0          
C726     C      0.727800000000     0.432700000000     0.727800000000     0          
N727     N      0.722300000000     0.467100000000     0.722300000000     0          
C728     C      0.697300000000     0.968000000000     0.197300000000     0          
C729     C      0.686050000000     0.935740000000     0.186050000000     0          
C730     C      0.707730000000     0.910600000000     0.207730000000     0          
C731     C      0.727800000000     0.932700000000     0.227800000000     0          
N732     N      0.722300000000     0.967100000000     0.222300000000     0          
C733     C      0.802700000000     0.532000000000     0.197300000000     0          
C734     C      0.813950000000     0.564260000000     0.186050000000     0          
C735     C      0.792270000000     0.589400000000     0.207730000000     0          
C736     C      0.772200000000     0.567300000000     0.227800000000     0          
N737     N      0.777700000000     0.532900000000     0.222300000000     0          
C738     C      0.802700000000     0.032000000000     0.697300000000     0          
C739     C      0.813950000000     0.064260000000     0.686050000000     0          
C740     C      0.792270000000     0.089400000000     0.707730000000     0          
C741     C      0.772200000000     0.067300000000     0.727800000000     0          
N742     N      0.777700000000     0.032900000000     0.722300000000     0          
C743     C      0.302700000000     0.532000000000     0.697300000000     0          
C744     C      0.313950000000     0.564260000000     0.686050000000     0          
C745     C      0.292270000000     0.589400000000     0.707730000000     0          
C746     C      0.272200000000     0.567300000000     0.727800000000     0          
N747     N      0.277700000000     0.532900000000     0.722300000000     0          
C748     C      0.302700000000     0.032000000000     0.197300000000     0          
C749     C      0.313950000000     0.064260000000     0.186050000000     0          
C750     C      0.292270000000     0.089400000000     0.207730000000     0          
C751     C      0.272200000000     0.067300000000     0.227800000000     0          
N752     N      0.277700000000     0.032900000000     0.222300000000     0          
C753     C      0.532000000000     0.197300000000     0.802700000000     0          
C754     C      0.564260000000     0.186050000000     0.813950000000     0          
C755     C      0.589400000000     0.207730000000     0.792270000000     0          
C756     C      0.567300000000     0.227800000000     0.772200000000     0          
N757     N      0.532900000000     0.222300000000     0.777700000000     0          
C758     C      0.532000000000     0.697300000000     0.302700000000     0          
C759     C      0.564260000000     0.686050000000     0.313950000000     0          
C760     C      0.589400000000     0.707730000000     0.292270000000     0          
C761     C      0.567300000000     0.727800000000     0.272200000000     0          
N762     N      0.532900000000     0.722300000000     0.277700000000     0          
C763     C      0.032000000000     0.197300000000     0.302700000000     0          
C764     C      0.064260000000     0.186050000000     0.313950000000     0          
C765     C      0.089400000000     0.207730000000     0.292270000000     0          
C766     C      0.067300000000     0.227800000000     0.272200000000     0          
N767     N      0.032900000000     0.222300000000     0.277700000000     0          
C768     C      0.032000000000     0.697300000000     0.802700000000     0          
C769     C      0.064260000000     0.686050000000     0.813950000000     0          
C770     C      0.089400000000     0.707730000000     0.792270000000     0          
C771     C      0.067300000000     0.727800000000     0.772200000000     0          
N772     N      0.032900000000     0.722300000000     0.777700000000     0          
C773     C      0.468000000000     0.197300000000     0.197300000000     0          
C774     C      0.435740000000     0.186050000000     0.186050000000     0          
C775     C      0.410600000000     0.207730000000     0.207730000000     0          
C776     C      0.432700000000     0.227800000000     0.227800000000     0          
N777     N      0.467100000000     0.222300000000     0.222300000000     0          
C778     C      0.468000000000     0.697300000000     0.697300000000     0          
C779     C      0.435740000000     0.686050000000     0.686050000000     0          
C780     C      0.410600000000     0.707730000000     0.707730000000     0          
C781     C      0.432700000000     0.727800000000     0.727800000000     0          
N782     N      0.467100000000     0.722300000000     0.722300000000     0          
C783     C      0.968000000000     0.197300000000     0.697300000000     0          
C784     C      0.935740000000     0.186050000000     0.686050000000     0          
C785     C      0.910600000000     0.207730000000     0.707730000000     0          
C786     C      0.932700000000     0.227800000000     0.727800000000     0          
N787     N      0.967100000000     0.222300000000     0.722300000000     0          
C788     C      0.968000000000     0.697300000000     0.197300000000     0          
C789     C      0.935740000000     0.686050000000     0.186050000000     0          
C790     C      0.910600000000     0.707730000000     0.207730000000     0          
C791     C      0.932700000000     0.727800000000     0.227800000000     0          
N792     N      0.967100000000     0.722300000000     0.222300000000     0          
C793     C      0.468000000000     0.802700000000     0.802700000000     0          
C794     C      0.435740000000     0.813950000000     0.813950000000     0          
C795     C      0.410600000000     0.792270000000     0.792270000000     0          
C796     C      0.432700000000     0.772200000000     0.772200000000     0          
N797     N      0.467100000000     0.777700000000     0.777700000000     0          
C798     C      0.468000000000     0.302700000000     0.302700000000     0          
C799     C      0.435740000000     0.313950000000     0.313950000000     0          
C800     C      0.410600000000     0.292270000000     0.292270000000     0          
C801     C      0.432700000000     0.272200000000     0.272200000000     0          
N802     N      0.467100000000     0.277700000000     0.277700000000     0          
C803     C      0.968000000000     0.802700000000     0.302700000000     0          
C804     C      0.935740000000     0.813950000000     0.313950000000     0          
C805     C      0.910600000000     0.792270000000     0.292270000000     0          
C806     C      0.932700000000     0.772200000000     0.272200000000     0          
N807     N      0.967100000000     0.777700000000     0.277700000000     0          
C808     C      0.968000000000     0.302700000000     0.802700000000     0          
C809     C      0.935740000000     0.313950000000     0.813950000000     0          
C810     C      0.910600000000     0.292270000000     0.792270000000     0          
C811     C      0.932700000000     0.272200000000     0.772200000000     0          
N812     N      0.967100000000     0.277700000000     0.777700000000     0          
C813     C      0.532000000000     0.802700000000     0.197300000000     0          
C814     C      0.564260000000     0.813950000000     0.186050000000     0          
C815     C      0.589400000000     0.792270000000     0.207730000000     0          
C816     C      0.567300000000     0.772200000000     0.227800000000     0          
N817     N      0.532900000000     0.777700000000     0.222300000000     0          
C818     C      0.532000000000     0.302700000000     0.697300000000     0          
C819     C      0.564260000000     0.313950000000     0.686050000000     0          
C820     C      0.589400000000     0.292270000000     0.707730000000     0          
C821     C      0.567300000000     0.272200000000     0.727800000000     0          
N822     N      0.532900000000     0.277700000000     0.722300000000     0          
C823     C      0.032000000000     0.802700000000     0.697300000000     0          
C824     C      0.064260000000     0.813950000000     0.686050000000     0          
C825     C      0.089400000000     0.792270000000     0.707730000000     0          
C826     C      0.067300000000     0.772200000000     0.727800000000     0          
N827     N      0.032900000000     0.777700000000     0.722300000000     0          
C828     C      0.032000000000     0.302700000000     0.197300000000     0          
C829     C      0.064260000000     0.313950000000     0.186050000000     0          
C830     C      0.089400000000     0.292270000000     0.207730000000     0          
C831     C      0.067300000000     0.272200000000     0.227800000000     0          
N832     N      0.032900000000     0.277700000000     0.222300000000     0          
C833     C      0.197300000000     0.197300000000     0.468000000000     0          
C834     C      0.186050000000     0.186050000000     0.435740000000     0          
C835     C      0.207730000000     0.207730000000     0.410600000000     0          
C836     C      0.227800000000     0.227800000000     0.432700000000     0          
N837     N      0.222300000000     0.222300000000     0.467100000000     0          
C838     C      0.197300000000     0.697300000000     0.968000000000     0          
C839     C      0.186050000000     0.686050000000     0.935740000000     0          
C840     C      0.207730000000     0.707730000000     0.910600000000     0          
C841     C      0.227800000000     0.727800000000     0.932700000000     0          
N842     N      0.222300000000     0.722300000000     0.967100000000     0          
C843     C      0.697300000000     0.197300000000     0.968000000000     0          
C844     C      0.686050000000     0.186050000000     0.935740000000     0          
C845     C      0.707730000000     0.207730000000     0.910600000000     0          
C846     C      0.727800000000     0.227800000000     0.932700000000     0          
N847     N      0.722300000000     0.222300000000     0.967100000000     0          
C848     C      0.697300000000     0.697300000000     0.468000000000     0          
C849     C      0.686050000000     0.686050000000     0.435740000000     0          
C850     C      0.707730000000     0.707730000000     0.410600000000     0          
C851     C      0.727800000000     0.727800000000     0.432700000000     0          
N852     N      0.722300000000     0.722300000000     0.467100000000     0          
C853     C      0.197300000000     0.802700000000     0.532000000000     0          
C854     C      0.186050000000     0.813950000000     0.564260000000     0          
C855     C      0.207730000000     0.792270000000     0.589400000000     0          
C856     C      0.227800000000     0.772200000000     0.567300000000     0          
N857     N      0.222300000000     0.777700000000     0.532900000000     0          
C858     C      0.197300000000     0.302700000000     0.032000000000     0          
C859     C      0.186050000000     0.313950000000     0.064260000000     0          
C860     C      0.207730000000     0.292270000000     0.089400000000     0          
C861     C      0.227800000000     0.272200000000     0.067300000000     0          
N862     N      0.222300000000     0.277700000000     0.032900000000     0          
C863     C      0.697300000000     0.802700000000     0.032000000000     0          
C864     C      0.686050000000     0.813950000000     0.064260000000     0          
C865     C      0.707730000000     0.792270000000     0.089400000000     0          
C866     C      0.727800000000     0.772200000000     0.067300000000     0          
N867     N      0.722300000000     0.777700000000     0.032900000000     0          
C868     C      0.697300000000     0.302700000000     0.532000000000     0          
C869     C      0.686050000000     0.313950000000     0.564260000000     0          
C870     C      0.707730000000     0.292270000000     0.589400000000     0          
C871     C      0.727800000000     0.272200000000     0.567300000000     0          
N872     N      0.722300000000     0.277700000000     0.532900000000     0          
C873     C      0.802700000000     0.197300000000     0.532000000000     0          
C874     C      0.813950000000     0.186050000000     0.564260000000     0          
C875     C      0.792270000000     0.207730000000     0.589400000000     0          
C876     C      0.772200000000     0.227800000000     0.567300000000     0          
N877     N      0.777700000000     0.222300000000     0.532900000000     0          
C878     C      0.802700000000     0.697300000000     0.032000000000     0          
C879     C      0.813950000000     0.686050000000     0.064260000000     0          
C880     C      0.792270000000     0.707730000000     0.089400000000     0          
C881     C      0.772200000000     0.727800000000     0.067300000000     0          
N882     N      0.777700000000     0.722300000000     0.032900000000     0          
C883     C      0.302700000000     0.197300000000     0.032000000000     0          
C884     C      0.313950000000     0.186050000000     0.064260000000     0          
C885     C      0.292270000000     0.207730000000     0.089400000000     0          
C886     C      0.272200000000     0.227800000000     0.067300000000     0          
N887     N      0.277700000000     0.222300000000     0.032900000000     0          
C888     C      0.302700000000     0.697300000000     0.532000000000     0          
C889     C      0.313950000000     0.686050000000     0.564260000000     0          
C890     C      0.292270000000     0.707730000000     0.589400000000     0          
C891     C      0.272200000000     0.727800000000     0.567300000000     0          
N892     N      0.277700000000     0.722300000000     0.532900000000     0          
C893     C      0.802700000000     0.802700000000     0.468000000000     0          
C894     C      0.813950000000     0.813950000000     0.435740000000     0          
C895     C      0.792270000000     0.792270000000     0.410600000000     0          
C896     C      0.772200000000     0.772200000000     0.432700000000     0          
N897     N      0.777700000000     0.777700000000     0.467100000000     0          
C898     C      0.802700000000     0.302700000000     0.968000000000     0          
C899     C      0.813950000000     0.313950000000     0.935740000000     0          
C900     C      0.792270000000     0.292270000000     0.910600000000     0          
C901     C      0.772200000000     0.272200000000     0.932700000000     0          
N902     N      0.777700000000     0.277700000000     0.967100000000     0          
C903     C      0.302700000000     0.802700000000     0.968000000000     0          
C904     C      0.313950000000     0.813950000000     0.935740000000     0          
C905     C      0.292270000000     0.792270000000     0.910600000000     0          
C906     C      0.272200000000     0.772200000000     0.932700000000     0          
N907     N      0.277700000000     0.777700000000     0.967100000000     0          
C908     C      0.302700000000     0.302700000000     0.468000000000     0          
C909     C      0.313950000000     0.313950000000     0.435740000000     0          
C910     C      0.292270000000     0.292270000000     0.410600000000     0          
C911     C      0.272200000000     0.272200000000     0.432700000000     0          
N912     N      0.277700000000     0.277700000000     0.467100000000     0          
C913     C      0.585000000000     0.250000000000     0.250000000000     0          
C914     C      0.625000000000     0.250000000000     0.250000000000     0          
C915     C      0.085000000000     0.250000000000     0.750000000000     0          
C916     C      0.125000000000     0.250000000000     0.750000000000     0          
C917     C      0.415000000000     0.750000000000     0.250000000000     0          
C918     C      0.375000000000     0.750000000000     0.250000000000     0          
C919     C      0.915000000000     0.750000000000     0.750000000000     0          
C920     C      0.875000000000     0.750000000000     0.750000000000     0          
C921     C      0.915000000000     0.250000000000     0.250000000000     0          
C922     C      0.875000000000     0.250000000000     0.250000000000     0          
C923     C      0.415000000000     0.250000000000     0.750000000000     0          
C924     C      0.375000000000     0.250000000000     0.750000000000     0          
C925     C      0.585000000000     0.750000000000     0.750000000000     0          
C926     C      0.625000000000     0.750000000000     0.750000000000     0          
C927     C      0.085000000000     0.750000000000     0.250000000000     0          
C928     C      0.125000000000     0.750000000000     0.250000000000     0          
C929     C      0.250000000000     0.585000000000     0.250000000000     0          
C930     C      0.250000000000     0.625000000000     0.250000000000     0          
C931     C      0.250000000000     0.085000000000     0.750000000000     0          
C932     C      0.250000000000     0.125000000000     0.750000000000     0          
C933     C      0.250000000000     0.415000000000     0.750000000000     0          
C934     C      0.250000000000     0.375000000000     0.750000000000     0          
C935     C      0.250000000000     0.915000000000     0.250000000000     0          
C936     C      0.250000000000     0.875000000000     0.250000000000     0          
C937     C      0.750000000000     0.415000000000     0.250000000000     0          
C938     C      0.750000000000     0.375000000000     0.250000000000     0          
C939     C      0.750000000000     0.915000000000     0.750000000000     0          
C940     C      0.750000000000     0.875000000000     0.750000000000     0          
C941     C      0.750000000000     0.585000000000     0.750000000000     0          
C942     C      0.750000000000     0.625000000000     0.750000000000     0          
C943     C      0.750000000000     0.085000000000     0.250000000000     0          
C944     C      0.750000000000     0.125000000000     0.250000000000     0          
C945     C      0.250000000000     0.250000000000     0.585000000000     0          
C946     C      0.250000000000     0.250000000000     0.625000000000     0          
C947     C      0.250000000000     0.750000000000     0.085000000000     0          
C948     C      0.250000000000     0.750000000000     0.125000000000     0          
C949     C      0.750000000000     0.250000000000     0.415000000000     0          
C950     C      0.750000000000     0.250000000000     0.375000000000     0          
C951     C      0.750000000000     0.750000000000     0.915000000000     0          
C952     C      0.750000000000     0.750000000000     0.875000000000     0          
C953     C      0.250000000000     0.250000000000     0.915000000000     0          
C954     C      0.250000000000     0.250000000000     0.875000000000     0          
C955     C      0.250000000000     0.750000000000     0.415000000000     0          
C956     C      0.250000000000     0.750000000000     0.375000000000     0          
C957     C      0.750000000000     0.750000000000     0.585000000000     0          
C958     C      0.750000000000     0.750000000000     0.625000000000     0          
C959     C      0.750000000000     0.250000000000     0.085000000000     0          
C960     C      0.750000000000     0.250000000000     0.125000000000     0          
C961     C      0.250000000000     0.585000000000     0.750000000000     0          
C962     C      0.250000000000     0.625000000000     0.750000000000     0          
C963     C      0.250000000000     0.085000000000     0.250000000000     0          
C964     C      0.250000000000     0.125000000000     0.250000000000     0          
C965     C      0.750000000000     0.415000000000     0.750000000000     0          
C966     C      0.750000000000     0.375000000000     0.750000000000     0          
C967     C      0.750000000000     0.915000000000     0.250000000000     0          
C968     C      0.750000000000     0.875000000000     0.250000000000     0          
C969     C      0.250000000000     0.415000000000     0.250000000000     0          
C970     C      0.250000000000     0.375000000000     0.250000000000     0          
C971     C      0.250000000000     0.915000000000     0.750000000000     0          
C972     C      0.250000000000     0.875000000000     0.750000000000     0          
C973     C      0.750000000000     0.585000000000     0.250000000000     0          
C974     C      0.750000000000     0.625000000000     0.250000000000     0          
C975     C      0.750000000000     0.085000000000     0.750000000000     0          
C976     C      0.750000000000     0.125000000000     0.750000000000     0          
C977     C      0.585000000000     0.250000000000     0.750000000000     0          
C978     C      0.625000000000     0.250000000000     0.750000000000     0          
C979     C      0.085000000000     0.250000000000     0.250000000000     0          
C980     C      0.125000000000     0.250000000000     0.250000000000     0          
C981     C      0.415000000000     0.250000000000     0.250000000000     0          
C982     C      0.375000000000     0.250000000000     0.250000000000     0          
C983     C      0.915000000000     0.250000000000     0.750000000000     0          
C984     C      0.875000000000     0.250000000000     0.750000000000     0          
C985     C      0.415000000000     0.750000000000     0.750000000000     0          
C986     C      0.375000000000     0.750000000000     0.750000000000     0          
C987     C      0.915000000000     0.750000000000     0.250000000000     0          
C988     C      0.875000000000     0.750000000000     0.250000000000     0          
C989     C      0.585000000000     0.750000000000     0.250000000000     0          
C990     C      0.625000000000     0.750000000000     0.250000000000     0          
C991     C      0.085000000000     0.750000000000     0.750000000000     0          
C992     C      0.125000000000     0.750000000000     0.750000000000     0          
C993     C      0.250000000000     0.250000000000     0.415000000000     0          
C994     C      0.250000000000     0.250000000000     0.375000000000     0          
C995     C      0.250000000000     0.750000000000     0.915000000000     0          
C996     C      0.250000000000     0.750000000000     0.875000000000     0          
C997     C      0.250000000000     0.750000000000     0.585000000000     0          
C998     C      0.250000000000     0.750000000000     0.625000000000     0          
C999     C      0.250000000000     0.250000000000     0.085000000000     0          
C1000    C      0.250000000000     0.250000000000     0.125000000000     0          
C1001    C      0.750000000000     0.250000000000     0.585000000000     0          
C1002    C      0.750000000000     0.250000000000     0.625000000000     0          
C1003    C      0.750000000000     0.750000000000     0.085000000000     0          
C1004    C      0.750000000000     0.750000000000     0.125000000000     0          
C1005    C      0.750000000000     0.750000000000     0.415000000000     0          
C1006    C      0.750000000000     0.750000000000     0.375000000000     0          
C1007    C      0.750000000000     0.250000000000     0.915000000000     0          
C1008    C      0.750000000000     0.250000000000     0.875000000000     0          
Zr1009   Zr     0.500000000000     0.000000000000     0.064050000000     0          
Zr1010   Zr     0.500000000000     0.500000000000     0.564050000000     0          
Zr1011   Zr     0.000000000000     0.000000000000     0.564050000000     0          
Zr1012   Zr     0.500000000000     0.000000000000     0.935950000000     0          
Zr1013   Zr     0.500000000000     0.500000000000     0.435950000000     0          
Zr1014   Zr     0.000000000000     0.500000000000     0.935950000000     0          
Zr1015   Zr     0.064050000000     0.500000000000     0.000000000000     0          
Zr1016   Zr     0.564050000000     0.500000000000     0.500000000000     0          
Zr1017   Zr     0.564050000000     0.000000000000     0.000000000000     0          
Zr1018   Zr     0.935950000000     0.500000000000     0.000000000000     0          
Zr1019   Zr     0.935950000000     0.000000000000     0.500000000000     0          
Zr1020   Zr     0.435950000000     0.500000000000     0.500000000000     0          
Zr1021   Zr     0.000000000000     0.064050000000     0.500000000000     0          
Zr1022   Zr     0.000000000000     0.564050000000     0.000000000000     0          
Zr1023   Zr     0.500000000000     0.564050000000     0.500000000000     0          
Zr1024   Zr     0.500000000000     0.064050000000     0.000000000000     0          
Zr1025   Zr     0.000000000000     0.935950000000     0.500000000000     0          
Zr1026   Zr     0.000000000000     0.435950000000     0.000000000000     0          
Zr1027   Zr     0.000000000000     0.000000000000     0.435950000000     0          
Zr1028   Zr     0.000000000000     0.500000000000     0.064050000000     0          
Zr1029   Zr     0.500000000000     0.935950000000     0.000000000000     0          
Zr1030   Zr     0.500000000000     0.435950000000     0.500000000000     0          
Zr1031   Zr     0.064050000000     0.000000000000     0.500000000000     0          
Zr1032   Zr     0.435950000000     0.000000000000     0.000000000000     0          
O1033    O      0.500000000000     0.049170000000     0.092810000000     0          
C1034    C      0.500000000000     0.143500000000     0.098200000000     0          
H1035    H      0.500000000000     0.150320000000     0.069590000000     0          
C1036    C      0.500000000000     0.169960000000     0.124820000000     0          
H1037    H      0.500000000000     0.198500000000     0.117700000000     0          
O1038    O      0.500000000000     0.549170000000     0.592810000000     0          
C1039    C      0.500000000000     0.643500000000     0.598200000000     0          
H1040    H      0.500000000000     0.650320000000     0.569590000000     0          
C1041    C      0.500000000000     0.669960000000     0.624820000000     0          
H1042    H      0.500000000000     0.698500000000     0.617700000000     0          
O1043    O      0.000000000000     0.049170000000     0.592810000000     0          
C1044    C      0.000000000000     0.143500000000     0.598200000000     0          
H1045    H      0.000000000000     0.150320000000     0.569590000000     0          
C1046    C      0.000000000000     0.169960000000     0.624820000000     0          
H1047    H      0.000000000000     0.198500000000     0.617700000000     0          
O1048    O      0.000000000000     0.549170000000     0.092810000000     0          
C1049    C      0.000000000000     0.643500000000     0.098200000000     0          
H1050    H      0.000000000000     0.650320000000     0.069590000000     0          
C1051    C      0.000000000000     0.669960000000     0.124820000000     0          
H1052    H      0.000000000000     0.698500000000     0.117700000000     0          
O1053    O      0.500000000000     0.950830000000     0.092810000000     0          
C1054    C      0.500000000000     0.856500000000     0.098200000000     0          
H1055    H      0.500000000000     0.849680000000     0.069590000000     0          
C1056    C      0.500000000000     0.830040000000     0.124820000000     0          
H1057    H      0.500000000000     0.801500000000     0.117700000000     0          
O1058    O      0.500000000000     0.450830000000     0.592810000000     0          
C1059    C      0.500000000000     0.356500000000     0.598200000000     0          
H1060    H      0.500000000000     0.349680000000     0.569590000000     0          
C1061    C      0.500000000000     0.330040000000     0.624820000000     0          
H1062    H      0.500000000000     0.301500000000     0.617700000000     0          
O1063    O      0.000000000000     0.950830000000     0.592810000000     0          
C1064    C      0.000000000000     0.856500000000     0.598200000000     0          
H1065    H      0.000000000000     0.849680000000     0.569590000000     0          
C1066    C      0.000000000000     0.830040000000     0.624820000000     0          
H1067    H      0.000000000000     0.801500000000     0.617700000000     0          
O1068    O      0.000000000000     0.450830000000     0.092810000000     0          
C1069    C      0.000000000000     0.356500000000     0.098200000000     0          
H1070    H      0.000000000000     0.349680000000     0.069590000000     0          
C1071    C      0.000000000000     0.330040000000     0.124820000000     0          
H1072    H      0.000000000000     0.301500000000     0.117700000000     0          
O1073    O      0.500000000000     0.049170000000     0.907190000000     0          
C1074    C      0.500000000000     0.143500000000     0.901800000000     0          
H1075    H      0.500000000000     0.150320000000     0.930410000000     0          
C1076    C      0.500000000000     0.169960000000     0.875180000000     0          
H1077    H      0.500000000000     0.198500000000     0.882300000000     0          
O1078    O      0.500000000000     0.549170000000     0.407190000000     0          
C1079    C      0.500000000000     0.643500000000     0.401800000000     0          
H1080    H      0.500000000000     0.650320000000     0.430410000000     0          
C1081    C      0.500000000000     0.669960000000     0.375180000000     0          
H1082    H      0.500000000000     0.698500000000     0.382300000000     0          
O1083    O      0.000000000000     0.049170000000     0.407190000000     0          
C1084    C      0.000000000000     0.143500000000     0.401800000000     0          
H1085    H      0.000000000000     0.150320000000     0.430410000000     0          
C1086    C      0.000000000000     0.169960000000     0.375180000000     0          
H1087    H      0.000000000000     0.198500000000     0.382300000000     0          
O1088    O      0.000000000000     0.549170000000     0.907190000000     0          
C1089    C      0.000000000000     0.643500000000     0.901800000000     0          
H1090    H      0.000000000000     0.650320000000     0.930410000000     0          
C1091    C      0.000000000000     0.669960000000     0.875180000000     0          
H1092    H      0.000000000000     0.698500000000     0.882300000000     0          
O1093    O      0.500000000000     0.950830000000     0.907190000000     0          
C1094    C      0.500000000000     0.856500000000     0.901800000000     0          
H1095    H      0.500000000000     0.849680000000     0.930410000000     0          
C1096    C      0.500000000000     0.830040000000     0.875180000000     0          
H1097    H      0.500000000000     0.801500000000     0.882300000000     0          
O1098    O      0.500000000000     0.450830000000     0.407190000000     0          
C1099    C      0.500000000000     0.356500000000     0.401800000000     0          
H1100    H      0.500000000000     0.349680000000     0.430410000000     0          
C1101    C      0.500000000000     0.330040000000     0.375180000000     0          
H1102    H      0.500000000000     0.301500000000     0.382300000000     0          
O1103    O      0.000000000000     0.950830000000     0.407190000000     0          
C1104    C      0.000000000000     0.856500000000     0.401800000000     0          
H1105    H      0.000000000000     0.849680000000     0.430410000000     0          
C1106    C      0.000000000000     0.830040000000     0.375180000000     0          
H1107    H      0.000000000000     0.801500000000     0.382300000000     0          
O1108    O      0.000000000000     0.450830000000     0.907190000000     0          
C1109    C      0.000000000000     0.356500000000     0.901800000000     0          
H1110    H      0.000000000000     0.349680000000     0.930410000000     0          
C1111    C      0.000000000000     0.330040000000     0.875180000000     0          
H1112    H      0.000000000000     0.301500000000     0.882300000000     0          
O1113    O      0.092810000000     0.500000000000     0.049170000000     0          
C1114    C      0.098200000000     0.500000000000     0.143500000000     0          
H1115    H      0.069590000000     0.500000000000     0.150320000000     0          
C1116    C      0.124820000000     0.500000000000     0.169960000000     0          
H1117    H      0.117700000000     0.500000000000     0.198500000000     0          
O1118    O      0.092810000000     0.000000000000     0.549170000000     0          
C1119    C      0.098200000000     0.000000000000     0.643500000000     0          
H1120    H      0.069590000000     0.000000000000     0.650320000000     0          
C1121    C      0.124820000000     0.000000000000     0.669960000000     0          
H1122    H      0.117700000000     0.000000000000     0.698500000000     0          
O1123    O      0.592810000000     0.500000000000     0.549170000000     0          
C1124    C      0.598200000000     0.500000000000     0.643500000000     0          
H1125    H      0.569590000000     0.500000000000     0.650320000000     0          
C1126    C      0.624820000000     0.500000000000     0.669960000000     0          
H1127    H      0.617700000000     0.500000000000     0.698500000000     0          
O1128    O      0.592810000000     0.000000000000     0.049170000000     0          
C1129    C      0.598200000000     0.000000000000     0.143500000000     0          
H1130    H      0.569590000000     0.000000000000     0.150320000000     0          
C1131    C      0.624820000000     0.000000000000     0.169960000000     0          
H1132    H      0.617700000000     0.000000000000     0.198500000000     0          
O1133    O      0.092810000000     0.500000000000     0.950830000000     0          
C1134    C      0.098200000000     0.500000000000     0.856500000000     0          
H1135    H      0.069590000000     0.500000000000     0.849680000000     0          
C1136    C      0.124820000000     0.500000000000     0.830040000000     0          
H1137    H      0.117700000000     0.500000000000     0.801500000000     0          
O1138    O      0.092810000000     0.000000000000     0.450830000000     0          
C1139    C      0.098200000000     0.000000000000     0.356500000000     0          
H1140    H      0.069590000000     0.000000000000     0.349680000000     0          
C1141    C      0.124820000000     0.000000000000     0.330040000000     0          
H1142    H      0.117700000000     0.000000000000     0.301500000000     0          
O1143    O      0.592810000000     0.500000000000     0.450830000000     0          
C1144    C      0.598200000000     0.500000000000     0.356500000000     0          
H1145    H      0.569590000000     0.500000000000     0.349680000000     0          
C1146    C      0.624820000000     0.500000000000     0.330040000000     0          
H1147    H      0.617700000000     0.500000000000     0.301500000000     0          
O1148    O      0.592810000000     0.000000000000     0.950830000000     0          
C1149    C      0.598200000000     0.000000000000     0.856500000000     0          
H1150    H      0.569590000000     0.000000000000     0.849680000000     0          
C1151    C      0.624820000000     0.000000000000     0.830040000000     0          
H1152    H      0.617700000000     0.000000000000     0.801500000000     0          
O1153    O      0.907190000000     0.500000000000     0.049170000000     0          
C1154    C      0.901800000000     0.500000000000     0.143500000000     0          
H1155    H      0.930410000000     0.500000000000     0.150320000000     0          
C1156    C      0.875180000000     0.500000000000     0.169960000000     0          
H1157    H      0.882300000000     0.500000000000     0.198500000000     0          
O1158    O      0.907190000000     0.000000000000     0.549170000000     0          
C1159    C      0.901800000000     0.000000000000     0.643500000000     0          
H1160    H      0.930410000000     0.000000000000     0.650320000000     0          
C1161    C      0.875180000000     0.000000000000     0.669960000000     0          
H1162    H      0.882300000000     0.000000000000     0.698500000000     0          
O1163    O      0.407190000000     0.500000000000     0.549170000000     0          
C1164    C      0.401800000000     0.500000000000     0.643500000000     0          
H1165    H      0.430410000000     0.500000000000     0.650320000000     0          
C1166    C      0.375180000000     0.500000000000     0.669960000000     0          
H1167    H      0.382300000000     0.500000000000     0.698500000000     0          
O1168    O      0.407190000000     0.000000000000     0.049170000000     0          
C1169    C      0.401800000000     0.000000000000     0.143500000000     0          
H1170    H      0.430410000000     0.000000000000     0.150320000000     0          
C1171    C      0.375180000000     0.000000000000     0.169960000000     0          
H1172    H      0.382300000000     0.000000000000     0.198500000000     0          
O1173    O      0.907190000000     0.500000000000     0.950830000000     0          
C1174    C      0.901800000000     0.500000000000     0.856500000000     0          
H1175    H      0.930410000000     0.500000000000     0.849680000000     0          
C1176    C      0.875180000000     0.500000000000     0.830040000000     0          
H1177    H      0.882300000000     0.500000000000     0.801500000000     0          
O1178    O      0.907190000000     0.000000000000     0.450830000000     0          
C1179    C      0.901800000000     0.000000000000     0.356500000000     0          
H1180    H      0.930410000000     0.000000000000     0.349680000000     0          
C1181    C      0.875180000000     0.000000000000     0.330040000000     0          
H1182    H      0.882300000000     0.000000000000     0.301500000000     0          
O1183    O      0.407190000000     0.500000000000     0.450830000000     0          
C1184    C      0.401800000000     0.500000000000     0.356500000000     0          
H1185    H      0.430410000000     0.500000000000     0.349680000000     0          
C1186    C      0.375180000000     0.500000000000     0.330040000000     0          
H1187    H      0.382300000000     0.500000000000     0.301500000000     0          
O1188    O      0.407190000000     0.000000000000     0.950830000000     0          
C1189    C      0.401800000000     0.000000000000     0.856500000000     0          
H1190    H      0.430410000000     0.000000000000     0.849680000000     0          
C1191    C      0.375180000000     0.000000000000     0.830040000000     0          
H1192    H      0.382300000000     0.000000000000     0.801500000000     0          
O1193    O      0.049170000000     0.092810000000     0.500000000000     0          
C1194    C      0.143500000000     0.098200000000     0.500000000000     0          
H1195    H      0.150320000000     0.069590000000     0.500000000000     0          
C1196    C      0.169960000000     0.124820000000     0.500000000000     0          
H1197    H      0.198500000000     0.117700000000     0.500000000000     0          
O1198    O      0.049170000000     0.592810000000     0.000000000000     0          
C1199    C      0.143500000000     0.598200000000     0.000000000000     0          
H1200    H      0.150320000000     0.569590000000     0.000000000000     0          
C1201    C      0.169960000000     0.624820000000     0.000000000000     0          
H1202    H      0.198500000000     0.617700000000     0.000000000000     0          
O1203    O      0.549170000000     0.092810000000     0.000000000000     0          
C1204    C      0.643500000000     0.098200000000     0.000000000000     0          
H1205    H      0.650320000000     0.069590000000     0.000000000000     0          
C1206    C      0.669960000000     0.124820000000     0.000000000000     0          
H1207    H      0.698500000000     0.117700000000     0.000000000000     0          
O1208    O      0.549170000000     0.592810000000     0.500000000000     0          
C1209    C      0.643500000000     0.598200000000     0.500000000000     0          
H1210    H      0.650320000000     0.569590000000     0.500000000000     0          
C1211    C      0.669960000000     0.624820000000     0.500000000000     0          
H1212    H      0.698500000000     0.617700000000     0.500000000000     0          
O1213    O      0.950830000000     0.092810000000     0.500000000000     0          
C1214    C      0.856500000000     0.098200000000     0.500000000000     0          
H1215    H      0.849680000000     0.069590000000     0.500000000000     0          
C1216    C      0.830040000000     0.124820000000     0.500000000000     0          
H1217    H      0.801500000000     0.117700000000     0.500000000000     0          
O1218    O      0.950830000000     0.592810000000     0.000000000000     0          
C1219    C      0.856500000000     0.598200000000     0.000000000000     0          
H1220    H      0.849680000000     0.569590000000     0.000000000000     0          
C1221    C      0.830040000000     0.624820000000     0.000000000000     0          
H1222    H      0.801500000000     0.617700000000     0.000000000000     0          
O1223    O      0.450830000000     0.092810000000     0.000000000000     0          
C1224    C      0.356500000000     0.098200000000     0.000000000000     0          
H1225    H      0.349680000000     0.069590000000     0.000000000000     0          
C1226    C      0.330040000000     0.124820000000     0.000000000000     0          
H1227    H      0.301500000000     0.117700000000     0.000000000000     0          
O1228    O      0.450830000000     0.592810000000     0.500000000000     0          
C1229    C      0.356500000000     0.598200000000     0.500000000000     0          
H1230    H      0.349680000000     0.569590000000     0.500000000000     0          
C1231    C      0.330040000000     0.624820000000     0.500000000000     0          
H1232    H      0.301500000000     0.617700000000     0.500000000000     0          
O1233    O      0.049170000000     0.907190000000     0.500000000000     0          
C1234    C      0.143500000000     0.901800000000     0.500000000000     0          
H1235    H      0.150320000000     0.930410000000     0.500000000000     0          
C1236    C      0.169960000000     0.875180000000     0.500000000000     0          
H1237    H      0.198500000000     0.882300000000     0.500000000000     0          
O1238    O      0.049170000000     0.407190000000     0.000000000000     0          
C1239    C      0.143500000000     0.401800000000     0.000000000000     0          
H1240    H      0.150320000000     0.430410000000     0.000000000000     0          
C1241    C      0.169960000000     0.375180000000     0.000000000000     0          
H1242    H      0.198500000000     0.382300000000     0.000000000000     0          
O1243    O      0.549170000000     0.907190000000     0.000000000000     0          
C1244    C      0.643500000000     0.901800000000     0.000000000000     0          
H1245    H      0.650320000000     0.930410000000     0.000000000000     0          
C1246    C      0.669960000000     0.875180000000     0.000000000000     0          
H1247    H      0.698500000000     0.882300000000     0.000000000000     0          
O1248    O      0.549170000000     0.407190000000     0.500000000000     0          
C1249    C      0.643500000000     0.401800000000     0.500000000000     0          
H1250    H      0.650320000000     0.430410000000     0.500000000000     0          
C1251    C      0.669960000000     0.375180000000     0.500000000000     0          
H1252    H      0.698500000000     0.382300000000     0.500000000000     0          
O1253    O      0.950830000000     0.907190000000     0.500000000000     0          
C1254    C      0.856500000000     0.901800000000     0.500000000000     0          
H1255    H      0.849680000000     0.930410000000     0.500000000000     0          
C1256    C      0.830040000000     0.875180000000     0.500000000000     0          
H1257    H      0.801500000000     0.882300000000     0.500000000000     0          
O1258    O      0.950830000000     0.407190000000     0.000000000000     0          
C1259    C      0.856500000000     0.401800000000     0.000000000000     0          
H1260    H      0.849680000000     0.430410000000     0.000000000000     0          
C1261    C      0.830040000000     0.375180000000     0.000000000000     0          
H1262    H      0.801500000000     0.382300000000     0.000000000000     0          
O1263    O      0.450830000000     0.907190000000     0.000000000000     0          
C1264    C      0.356500000000     0.901800000000     0.000000000000     0          
H1265    H      0.349680000000     0.930410000000     0.000000000000     0          
C1266    C      0.330040000000     0.875180000000     0.000000000000     0          
H1267    H      0.301500000000     0.882300000000     0.000000000000     0          
O1268    O      0.450830000000     0.407190000000     0.500000000000     0          
C1269    C      0.356500000000     0.401800000000     0.500000000000     0          
H1270    H      0.349680000000     0.430410000000     0.500000000000     0          
C1271    C      0.330040000000     0.375180000000     0.500000000000     0          
H1272    H      0.301500000000     0.382300000000     0.500000000000     0          
O1273    O      0.049170000000     0.500000000000     0.907190000000     0          
C1274    C      0.143500000000     0.500000000000     0.901800000000     0          
H1275    H      0.150320000000     0.500000000000     0.930410000000     0          
C1276    C      0.169960000000     0.500000000000     0.875180000000     0          
H1277    H      0.198500000000     0.500000000000     0.882300000000     0          
O1278    O      0.049170000000     0.000000000000     0.407190000000     0          
C1279    C      0.143500000000     0.000000000000     0.401800000000     0          
H1280    H      0.150320000000     0.000000000000     0.430410000000     0          
C1281    C      0.169960000000     0.000000000000     0.375180000000     0          
H1282    H      0.198500000000     0.000000000000     0.382300000000     0          
O1283    O      0.549170000000     0.500000000000     0.407190000000     0          
C1284    C      0.643500000000     0.500000000000     0.401800000000     0          
H1285    H      0.650320000000     0.500000000000     0.430410000000     0          
C1286    C      0.669960000000     0.500000000000     0.375180000000     0          
H1287    H      0.698500000000     0.500000000000     0.382300000000     0          
O1288    O      0.549170000000     0.000000000000     0.907190000000     0          
C1289    C      0.643500000000     0.000000000000     0.901800000000     0          
H1290    H      0.650320000000     0.000000000000     0.930410000000     0          
C1291    C      0.669960000000     0.000000000000     0.875180000000     0          
H1292    H      0.698500000000     0.000000000000     0.882300000000     0          
O1293    O      0.950830000000     0.500000000000     0.907190000000     0          
C1294    C      0.856500000000     0.500000000000     0.901800000000     0          
H1295    H      0.849680000000     0.500000000000     0.930410000000     0          
C1296    C      0.830040000000     0.500000000000     0.875180000000     0          
H1297    H      0.801500000000     0.500000000000     0.882300000000     0          
O1298    O      0.950830000000     0.000000000000     0.407190000000     0          
C1299    C      0.856500000000     0.000000000000     0.401800000000     0          
H1300    H      0.849680000000     0.000000000000     0.430410000000     0          
C1301    C      0.830040000000     0.000000000000     0.375180000000     0          
H1302    H      0.801500000000     0.000000000000     0.382300000000     0          
O1303    O      0.450830000000     0.500000000000     0.407190000000     0          
C1304    C      0.356500000000     0.500000000000     0.401800000000     0          
H1305    H      0.349680000000     0.500000000000     0.430410000000     0          
C1306    C      0.330040000000     0.500000000000     0.375180000000     0          
H1307    H      0.301500000000     0.500000000000     0.382300000000     0          
O1308    O      0.450830000000     0.000000000000     0.907190000000     0          
C1309    C      0.356500000000     0.000000000000     0.901800000000     0          
H1310    H      0.349680000000     0.000000000000     0.930410000000     0          
C1311    C      0.330040000000     0.000000000000     0.875180000000     0          
H1312    H      0.301500000000     0.000000000000     0.882300000000     0          
O1313    O      0.049170000000     0.500000000000     0.092810000000     0          
C1314    C      0.143500000000     0.500000000000     0.098200000000     0          
H1315    H      0.150320000000     0.500000000000     0.069590000000     0          
C1316    C      0.169960000000     0.500000000000     0.124820000000     0          
H1317    H      0.198500000000     0.500000000000     0.117700000000     0          
O1318    O      0.049170000000     0.000000000000     0.592810000000     0          
C1319    C      0.143500000000     0.000000000000     0.598200000000     0          
H1320    H      0.150320000000     0.000000000000     0.569590000000     0          
C1321    C      0.169960000000     0.000000000000     0.624820000000     0          
H1322    H      0.198500000000     0.000000000000     0.617700000000     0          
O1323    O      0.549170000000     0.500000000000     0.592810000000     0          
C1324    C      0.643500000000     0.500000000000     0.598200000000     0          
H1325    H      0.650320000000     0.500000000000     0.569590000000     0          
C1326    C      0.669960000000     0.500000000000     0.624820000000     0          
H1327    H      0.698500000000     0.500000000000     0.617700000000     0          
O1328    O      0.549170000000     0.000000000000     0.092810000000     0          
C1329    C      0.643500000000     0.000000000000     0.098200000000     0          
H1330    H      0.650320000000     0.000000000000     0.069590000000     0          
C1331    C      0.669960000000     0.000000000000     0.124820000000     0          
H1332    H      0.698500000000     0.000000000000     0.117700000000     0          
O1333    O      0.950830000000     0.500000000000     0.092810000000     0          
C1334    C      0.856500000000     0.500000000000     0.098200000000     0          
H1335    H      0.849680000000     0.500000000000     0.069590000000     0          
C1336    C      0.830040000000     0.500000000000     0.124820000000     0          
H1337    H      0.801500000000     0.500000000000     0.117700000000     0          
O1338    O      0.950830000000     0.000000000000     0.592810000000     0          
C1339    C      0.856500000000     0.000000000000     0.598200000000     0          
H1340    H      0.849680000000     0.000000000000     0.569590000000     0          
C1341    C      0.830040000000     0.000000000000     0.624820000000     0          
H1342    H      0.801500000000     0.000000000000     0.617700000000     0          
O1343    O      0.450830000000     0.500000000000     0.592810000000     0          
C1344    C      0.356500000000     0.500000000000     0.598200000000     0          
H1345    H      0.349680000000     0.500000000000     0.569590000000     0          
C1346    C      0.330040000000     0.500000000000     0.624820000000     0          
H1347    H      0.301500000000     0.500000000000     0.617700000000     0          
O1348    O      0.450830000000     0.000000000000     0.092810000000     0          
C1349    C      0.356500000000     0.000000000000     0.098200000000     0          
H1350    H      0.349680000000     0.000000000000     0.069590000000     0          
C1351    C      0.330040000000     0.000000000000     0.124820000000     0          
H1352    H      0.301500000000     0.000000000000     0.117700000000     0          
O1353    O      0.500000000000     0.092810000000     0.950830000000     0          
C1354    C      0.500000000000     0.098200000000     0.856500000000     0          
H1355    H      0.500000000000     0.069590000000     0.849680000000     0          
C1356    C      0.500000000000     0.124820000000     0.830040000000     0          
H1357    H      0.500000000000     0.117700000000     0.801500000000     0          
O1358    O      0.500000000000     0.592810000000     0.450830000000     0          
C1359    C      0.500000000000     0.598200000000     0.356500000000     0          
H1360    H      0.500000000000     0.569590000000     0.349680000000     0          
C1361    C      0.500000000000     0.624820000000     0.330040000000     0          
H1362    H      0.500000000000     0.617700000000     0.301500000000     0          
O1363    O      0.000000000000     0.092810000000     0.450830000000     0          
C1364    C      0.000000000000     0.098200000000     0.356500000000     0          
H1365    H      0.000000000000     0.069590000000     0.349680000000     0          
C1366    C      0.000000000000     0.124820000000     0.330040000000     0          
H1367    H      0.000000000000     0.117700000000     0.301500000000     0          
O1368    O      0.000000000000     0.592810000000     0.950830000000     0          
C1369    C      0.000000000000     0.598200000000     0.856500000000     0          
H1370    H      0.000000000000     0.569590000000     0.849680000000     0          
C1371    C      0.000000000000     0.624820000000     0.830040000000     0          
H1372    H      0.000000000000     0.617700000000     0.801500000000     0          
O1373    O      0.500000000000     0.092810000000     0.049170000000     0          
C1374    C      0.500000000000     0.098200000000     0.143500000000     0          
H1375    H      0.500000000000     0.069590000000     0.150320000000     0          
C1376    C      0.500000000000     0.124820000000     0.169960000000     0          
H1377    H      0.500000000000     0.117700000000     0.198500000000     0          
O1378    O      0.500000000000     0.592810000000     0.549170000000     0          
C1379    C      0.500000000000     0.598200000000     0.643500000000     0          
H1380    H      0.500000000000     0.569590000000     0.650320000000     0          
C1381    C      0.500000000000     0.624820000000     0.669960000000     0          
H1382    H      0.500000000000     0.617700000000     0.698500000000     0          
O1383    O      0.000000000000     0.092810000000     0.549170000000     0          
C1384    C      0.000000000000     0.098200000000     0.643500000000     0          
H1385    H      0.000000000000     0.069590000000     0.650320000000     0          
C1386    C      0.000000000000     0.124820000000     0.669960000000     0          
H1387    H      0.000000000000     0.117700000000     0.698500000000     0          
O1388    O      0.000000000000     0.592810000000     0.049170000000     0          
C1389    C      0.000000000000     0.598200000000     0.143500000000     0          
H1390    H      0.000000000000     0.569590000000     0.150320000000     0          
C1391    C      0.000000000000     0.624820000000     0.169960000000     0          
H1392    H      0.000000000000     0.617700000000     0.198500000000     0          
O1393    O      0.500000000000     0.907190000000     0.950830000000     0          
C1394    C      0.500000000000     0.901800000000     0.856500000000     0          
H1395    H      0.500000000000     0.930410000000     0.849680000000     0          
C1396    C      0.500000000000     0.875180000000     0.830040000000     0          
H1397    H      0.500000000000     0.882300000000     0.801500000000     0          
O1398    O      0.500000000000     0.407190000000     0.450830000000     0          
C1399    C      0.500000000000     0.401800000000     0.356500000000     0          
H1400    H      0.500000000000     0.430410000000     0.349680000000     0          
C1401    C      0.500000000000     0.375180000000     0.330040000000     0          
H1402    H      0.500000000000     0.382300000000     0.301500000000     0          
O1403    O      0.000000000000     0.907190000000     0.450830000000     0          
C1404    C      0.000000000000     0.901800000000     0.356500000000     0          
H1405    H      0.000000000000     0.930410000000     0.349680000000     0          
C1406    C      0.000000000000     0.875180000000     0.330040000000     0          
H1407    H      0.000000000000     0.882300000000     0.301500000000     0          
O1408    O      0.000000000000     0.407190000000     0.950830000000     0          
C1409    C      0.000000000000     0.401800000000     0.856500000000     0          
H1410    H      0.000000000000     0.430410000000     0.849680000000     0          
C1411    C      0.000000000000     0.375180000000     0.830040000000     0          
H1412    H      0.000000000000     0.382300000000     0.801500000000     0          
O1413    O      0.500000000000     0.907190000000     0.049170000000     0          
C1414    C      0.500000000000     0.901800000000     0.143500000000     0          
H1415    H      0.500000000000     0.930410000000     0.150320000000     0          
C1416    C      0.500000000000     0.875180000000     0.169960000000     0          
H1417    H      0.500000000000     0.882300000000     0.198500000000     0          
O1418    O      0.500000000000     0.407190000000     0.549170000000     0          
C1419    C      0.500000000000     0.401800000000     0.643500000000     0          
H1420    H      0.500000000000     0.430410000000     0.650320000000     0          
C1421    C      0.500000000000     0.375180000000     0.669960000000     0          
H1422    H      0.500000000000     0.382300000000     0.698500000000     0          
O1423    O      0.000000000000     0.907190000000     0.549170000000     0          
C1424    C      0.000000000000     0.901800000000     0.643500000000     0          
H1425    H      0.000000000000     0.930410000000     0.650320000000     0          
C1426    C      0.000000000000     0.875180000000     0.669960000000     0          
H1427    H      0.000000000000     0.882300000000     0.698500000000     0          
O1428    O      0.000000000000     0.407190000000     0.049170000000     0          
C1429    C      0.000000000000     0.401800000000     0.143500000000     0          
H1430    H      0.000000000000     0.430410000000     0.150320000000     0          
C1431    C      0.000000000000     0.375180000000     0.169960000000     0          
H1432    H      0.000000000000     0.382300000000     0.198500000000     0          
O1433    O      0.092810000000     0.049170000000     0.500000000000     0          
C1434    C      0.098200000000     0.143500000000     0.500000000000     0          
H1435    H      0.069590000000     0.150320000000     0.500000000000     0          
C1436    C      0.124820000000     0.169960000000     0.500000000000     0          
H1437    H      0.117700000000     0.198500000000     0.500000000000     0          
O1438    O      0.092810000000     0.549170000000     0.000000000000     0          
C1439    C      0.098200000000     0.643500000000     0.000000000000     0          
H1440    H      0.069590000000     0.650320000000     0.000000000000     0          
C1441    C      0.124820000000     0.669960000000     0.000000000000     0          
H1442    H      0.117700000000     0.698500000000     0.000000000000     0          
O1443    O      0.592810000000     0.049170000000     0.000000000000     0          
C1444    C      0.598200000000     0.143500000000     0.000000000000     0          
H1445    H      0.569590000000     0.150320000000     0.000000000000     0          
C1446    C      0.624820000000     0.169960000000     0.000000000000     0          
H1447    H      0.617700000000     0.198500000000     0.000000000000     0          
O1448    O      0.592810000000     0.549170000000     0.500000000000     0          
C1449    C      0.598200000000     0.643500000000     0.500000000000     0          
H1450    H      0.569590000000     0.650320000000     0.500000000000     0          
C1451    C      0.624820000000     0.669960000000     0.500000000000     0          
H1452    H      0.617700000000     0.698500000000     0.500000000000     0          
O1453    O      0.092810000000     0.950830000000     0.500000000000     0          
C1454    C      0.098200000000     0.856500000000     0.500000000000     0          
H1455    H      0.069590000000     0.849680000000     0.500000000000     0          
C1456    C      0.124820000000     0.830040000000     0.500000000000     0          
H1457    H      0.117700000000     0.801500000000     0.500000000000     0          
O1458    O      0.092810000000     0.450830000000     0.000000000000     0          
C1459    C      0.098200000000     0.356500000000     0.000000000000     0          
H1460    H      0.069590000000     0.349680000000     0.000000000000     0          
C1461    C      0.124820000000     0.330040000000     0.000000000000     0          
H1462    H      0.117700000000     0.301500000000     0.000000000000     0          
O1463    O      0.592810000000     0.950830000000     0.000000000000     0          
C1464    C      0.598200000000     0.856500000000     0.000000000000     0          
H1465    H      0.569590000000     0.849680000000     0.000000000000     0          
C1466    C      0.624820000000     0.830040000000     0.000000000000     0          
H1467    H      0.617700000000     0.801500000000     0.000000000000     0          
O1468    O      0.592810000000     0.450830000000     0.500000000000     0          
C1469    C      0.598200000000     0.356500000000     0.500000000000     0          
H1470    H      0.569590000000     0.349680000000     0.500000000000     0          
C1471    C      0.624820000000     0.330040000000     0.500000000000     0          
H1472    H      0.617700000000     0.301500000000     0.500000000000     0          
O1473    O      0.907190000000     0.049170000000     0.500000000000     0          
C1474    C      0.901800000000     0.143500000000     0.500000000000     0          
H1475    H      0.930410000000     0.150320000000     0.500000000000     0          
C1476    C      0.875180000000     0.169960000000     0.500000000000     0          
H1477    H      0.882300000000     0.198500000000     0.500000000000     0          
O1478    O      0.907190000000     0.549170000000     0.000000000000     0          
C1479    C      0.901800000000     0.643500000000     0.000000000000     0          
H1480    H      0.930410000000     0.650320000000     0.000000000000     0          
C1481    C      0.875180000000     0.669960000000     0.000000000000     0          
H1482    H      0.882300000000     0.698500000000     0.000000000000     0          
O1483    O      0.407190000000     0.049170000000     0.000000000000     0          
C1484    C      0.401800000000     0.143500000000     0.000000000000     0          
H1485    H      0.430410000000     0.150320000000     0.000000000000     0          
C1486    C      0.375180000000     0.169960000000     0.000000000000     0          
H1487    H      0.382300000000     0.198500000000     0.000000000000     0          
O1488    O      0.407190000000     0.549170000000     0.500000000000     0          
C1489    C      0.401800000000     0.643500000000     0.500000000000     0          
H1490    H      0.430410000000     0.650320000000     0.500000000000     0          
C1491    C      0.375180000000     0.669960000000     0.500000000000     0          
H1492    H      0.382300000000     0.698500000000     0.500000000000     0          
O1493    O      0.907190000000     0.950830000000     0.500000000000     0          
C1494    C      0.901800000000     0.856500000000     0.500000000000     0          
H1495    H      0.930410000000     0.849680000000     0.500000000000     0          
C1496    C      0.875180000000     0.830040000000     0.500000000000     0          
H1497    H      0.882300000000     0.801500000000     0.500000000000     0          
O1498    O      0.907190000000     0.450830000000     0.000000000000     0          
C1499    C      0.901800000000     0.356500000000     0.000000000000     0          
H1500    H      0.930410000000     0.349680000000     0.000000000000     0          
C1501    C      0.875180000000     0.330040000000     0.000000000000     0          
H1502    H      0.882300000000     0.301500000000     0.000000000000     0          
O1503    O      0.407190000000     0.950830000000     0.000000000000     0          
C1504    C      0.401800000000     0.856500000000     0.000000000000     0          
H1505    H      0.430410000000     0.849680000000     0.000000000000     0          
C1506    C      0.375180000000     0.830040000000     0.000000000000     0          
H1507    H      0.382300000000     0.801500000000     0.000000000000     0          
O1508    O      0.407190000000     0.450830000000     0.500000000000     0          
C1509    C      0.401800000000     0.356500000000     0.500000000000     0          
H1510    H      0.430410000000     0.349680000000     0.500000000000     0          
C1511    C      0.375180000000     0.330040000000     0.500000000000     0          
H1512    H      0.382300000000     0.301500000000     0.500000000000     0          
O1513    O      0.531400000000     0.031400000000     0.031400000000     0          
O1514    O      0.531400000000     0.531400000000     0.531400000000     0          
O1515    O      0.468600000000     0.968600000000     0.031400000000     0          
O1516    O      0.468600000000     0.468600000000     0.531400000000     0          
O1517    O      0.968600000000     0.968600000000     0.531400000000     0          
O1518    O      0.468600000000     0.031400000000     0.968600000000     0          
O1519    O      0.468600000000     0.531400000000     0.468600000000     0          
O1520    O      0.968600000000     0.531400000000     0.968600000000     0          
O1521    O      0.531400000000     0.968600000000     0.968600000000     0          
O1522    O      0.531400000000     0.468600000000     0.468600000000     0          
O1523    O      0.031400000000     0.531400000000     0.031400000000     0          
O1524    O      0.031400000000     0.468600000000     0.968600000000     0          
O1525    O      0.968600000000     0.468600000000     0.031400000000     0          
O1526    O      0.031400000000     0.031400000000     0.531400000000     0          
O1527    O      0.968600000000     0.031400000000     0.468600000000     0          
O1528    O      0.031400000000     0.968600000000     0.468600000000     0          
O1529    O      0.031400000000     0.531400000000     0.968600000000     0          
O1530    O      0.531400000000     0.531400000000     0.468600000000     0          
O1531    O      0.968600000000     0.468600000000     0.968600000000     0          
O1532    O      0.031400000000     0.468600000000     0.031400000000     0          
O1533    O      0.031400000000     0.968600000000     0.531400000000     0          
O1534    O      0.531400000000     0.968600000000     0.031400000000     0          
O1535    O      0.968600000000     0.531400000000     0.031400000000     0          
O1536    O      0.531400000000     0.031400000000     0.968600000000     0          
O1537    O      0.468600000000     0.031400000000     0.031400000000     0          
O1538    O      0.468600000000     0.531400000000     0.531400000000     0          
O1539    O      0.968600000000     0.031400000000     0.531400000000     0          
O1540    O      0.468600000000     0.968600000000     0.968600000000     0          
O1541    O      0.468600000000     0.468600000000     0.468600000000     0          
O1542    O      0.531400000000     0.468600000000     0.531400000000     0          
O1543    O      0.031400000000     0.031400000000     0.468600000000     0          
O1544    O      0.968600000000     0.968600000000     0.468600000000     0          
Zn1545   Zn     0.500000000000     0.250000000000     0.250000000000     0          
Zn1546   Zn     0.000000000000     0.250000000000     0.750000000000     0          
Zn1547   Zn     0.500000000000     0.750000000000     0.250000000000     0          
Zn1548   Zn     0.000000000000     0.750000000000     0.750000000000     0          
Zn1549   Zn     0.000000000000     0.250000000000     0.250000000000     0          
Zn1550   Zn     0.500000000000     0.250000000000     0.750000000000     0          
Zn1551   Zn     0.500000000000     0.750000000000     0.750000000000     0          
Zn1552   Zn     0.000000000000     0.750000000000     0.250000000000     0          
Zn1553   Zn     0.250000000000     0.500000000000     0.250000000000     0          
Zn1554   Zn     0.250000000000     0.000000000000     0.750000000000     0          
Zn1555   Zn     0.250000000000     0.500000000000     0.750000000000     0          
Zn1556   Zn     0.250000000000     0.000000000000     0.250000000000     0          
Zn1557   Zn     0.750000000000     0.500000000000     0.250000000000     0          
Zn1558   Zn     0.750000000000     0.000000000000     0.750000000000     0          
Zn1559   Zn     0.750000000000     0.500000000000     0.750000000000     0          
Zn1560   Zn     0.750000000000     0.000000000000     0.250000000000     0          
Zn1561   Zn     0.250000000000     0.250000000000     0.500000000000     0          
Zn1562   Zn     0.250000000000     0.750000000000     0.000000000000     0          
Zn1563   Zn     0.750000000000     0.250000000000     0.500000000000     0          
Zn1564   Zn     0.750000000000     0.750000000000     0.000000000000     0          
Zn1565   Zn     0.250000000000     0.250000000000     0.000000000000     0          
Zn1566   Zn     0.250000000000     0.750000000000     0.500000000000     0          
Zn1567   Zn     0.750000000000     0.750000000000     0.500000000000     0          
Zn1568   Zn     0.750000000000     0.250000000000     0.000000000000     0          
H1569    H      0.628060000000     0.292270000000     0.208770000000     0          
H1570    H      0.695140000000     0.791860000000     0.707320000000     0          
H1571    H      0.195140000000     0.291860000000     0.707320000000     0          
H1572    H      0.128060000000     0.792270000000     0.208770000000     0          
H1573    H      0.371940000000     0.707730000000     0.208770000000     0          
H1574    H      0.304860000000     0.208140000000     0.707320000000     0          
H1575    H      0.804860000000     0.708140000000     0.707320000000     0          
H1576    H      0.871940000000     0.207730000000     0.208770000000     0          
H1577    H      0.371940000000     0.292270000000     0.791230000000     0          
H1578    H      0.304860000000     0.791860000000     0.292680000000     0          
H1579    H      0.804860000000     0.291860000000     0.292680000000     0          
H1580    H      0.871940000000     0.792270000000     0.791230000000     0          
H1581    H      0.628060000000     0.707730000000     0.791230000000     0          
H1582    H      0.695140000000     0.208140000000     0.292680000000     0          
H1583    H      0.195140000000     0.708140000000     0.292680000000     0          
H1584    H      0.128060000000     0.207730000000     0.791230000000     0          
H1585    H      0.208770000000     0.628060000000     0.292270000000     0          
H1586    H      0.251350000000     0.228770000000     0.748930000000     0          
H1587    H      0.207730000000     0.196090000000     0.791470000000     0          
H1588    H      0.751350000000     0.728770000000     0.748930000000     0          
H1589    H      0.707730000000     0.696090000000     0.791470000000     0          
H1590    H      0.708770000000     0.128060000000     0.292270000000     0          
H1591    H      0.208770000000     0.371940000000     0.707730000000     0          
H1592    H      0.251350000000     0.771230000000     0.251070000000     0          
H1593    H      0.207730000000     0.803910000000     0.208530000000     0          
H1594    H      0.751350000000     0.271230000000     0.251070000000     0          
H1595    H      0.707730000000     0.303910000000     0.208530000000     0          
H1596    H      0.708770000000     0.871940000000     0.707730000000     0          
H1597    H      0.791230000000     0.371940000000     0.292270000000     0          
H1598    H      0.748650000000     0.771230000000     0.748930000000     0          
H1599    H      0.792270000000     0.803910000000     0.791470000000     0          
H1600    H      0.248650000000     0.271230000000     0.748930000000     0          
H1601    H      0.292270000000     0.303910000000     0.791470000000     0          
H1602    H      0.291230000000     0.871940000000     0.292270000000     0          
H1603    H      0.791230000000     0.628060000000     0.707730000000     0          
H1604    H      0.748650000000     0.228770000000     0.251070000000     0          
H1605    H      0.792270000000     0.196090000000     0.208530000000     0          
H1606    H      0.248650000000     0.728770000000     0.251070000000     0          
H1607    H      0.292270000000     0.696090000000     0.208530000000     0          
H1608    H      0.291230000000     0.128060000000     0.707730000000     0          
H1609    H      0.292270000000     0.208770000000     0.628060000000     0          
H1610    H      0.291860000000     0.707320000000     0.195140000000     0          
H1611    H      0.792270000000     0.208770000000     0.128060000000     0          
H1612    H      0.791860000000     0.707320000000     0.695140000000     0          
H1613    H      0.707730000000     0.208770000000     0.371940000000     0          
H1614    H      0.708140000000     0.707320000000     0.804860000000     0          
H1615    H      0.207730000000     0.208770000000     0.871940000000     0          
H1616    H      0.208140000000     0.707320000000     0.304860000000     0          
H1617    H      0.292270000000     0.791230000000     0.371940000000     0          
H1618    H      0.291860000000     0.292680000000     0.804860000000     0          
H1619    H      0.792270000000     0.791230000000     0.871940000000     0          
H1620    H      0.791860000000     0.292680000000     0.304860000000     0          
H1621    H      0.707730000000     0.791230000000     0.628060000000     0          
H1622    H      0.708140000000     0.292680000000     0.195140000000     0          
H1623    H      0.207730000000     0.791230000000     0.128060000000     0          
H1624    H      0.208140000000     0.292680000000     0.695140000000     0          
H1625    H      0.292270000000     0.628060000000     0.791230000000     0          
H1626    H      0.291860000000     0.195140000000     0.292680000000     0          
H1627    H      0.791860000000     0.695140000000     0.292680000000     0          
H1628    H      0.792270000000     0.128060000000     0.791230000000     0          
H1629    H      0.707730000000     0.371940000000     0.791230000000     0          
H1630    H      0.708140000000     0.804860000000     0.292680000000     0          
H1631    H      0.208140000000     0.304860000000     0.292680000000     0          
H1632    H      0.207730000000     0.871940000000     0.791230000000     0          
H1633    H      0.292270000000     0.371940000000     0.208770000000     0          
H1634    H      0.291860000000     0.804860000000     0.707320000000     0          
H1635    H      0.791860000000     0.304860000000     0.707320000000     0          
H1636    H      0.792270000000     0.871940000000     0.208770000000     0          
H1637    H      0.707730000000     0.628060000000     0.208770000000     0          
H1638    H      0.708140000000     0.195140000000     0.707320000000     0          
H1639    H      0.208140000000     0.695140000000     0.707320000000     0          
H1640    H      0.207730000000     0.128060000000     0.208770000000     0          
H1641    H      0.628060000000     0.208770000000     0.707730000000     0          
H1642    H      0.728770000000     0.751350000000     0.251070000000     0          
H1643    H      0.696090000000     0.707730000000     0.208530000000     0          
H1644    H      0.228770000000     0.251350000000     0.251070000000     0          
H1645    H      0.196090000000     0.207730000000     0.208530000000     0          
H1646    H      0.128060000000     0.708770000000     0.707730000000     0          
H1647    H      0.371940000000     0.208770000000     0.292270000000     0          
H1648    H      0.271230000000     0.751350000000     0.748930000000     0          
H1649    H      0.303910000000     0.707730000000     0.791470000000     0          
H1650    H      0.771230000000     0.251350000000     0.748930000000     0          
H1651    H      0.803910000000     0.207730000000     0.791470000000     0          
H1652    H      0.871940000000     0.708770000000     0.292270000000     0          
H1653    H      0.371940000000     0.791230000000     0.707730000000     0          
H1654    H      0.271230000000     0.248650000000     0.251070000000     0          
H1655    H      0.303910000000     0.292270000000     0.208530000000     0          
H1656    H      0.771230000000     0.748650000000     0.251070000000     0          
H1657    H      0.803910000000     0.792270000000     0.208530000000     0          
H1658    H      0.871940000000     0.291230000000     0.707730000000     0          
H1659    H      0.628060000000     0.791230000000     0.292270000000     0          
H1660    H      0.728770000000     0.248650000000     0.748930000000     0          
H1661    H      0.696090000000     0.292270000000     0.791470000000     0          
H1662    H      0.128060000000     0.291230000000     0.292270000000     0          
H1663    H      0.208770000000     0.292270000000     0.371940000000     0          
H1664    H      0.251350000000     0.748930000000     0.771230000000     0          
H1665    H      0.207730000000     0.791470000000     0.803910000000     0          
H1666    H      0.708770000000     0.292270000000     0.871940000000     0          
H1667    H      0.751350000000     0.748930000000     0.271230000000     0          
H1668    H      0.707730000000     0.791470000000     0.303910000000     0          
H1669    H      0.208770000000     0.707730000000     0.628060000000     0          
H1670    H      0.251350000000     0.251070000000     0.228770000000     0          
H1671    H      0.207730000000     0.208530000000     0.196090000000     0          
H1672    H      0.708770000000     0.707730000000     0.128060000000     0          
H1673    H      0.751350000000     0.251070000000     0.728770000000     0          
H1674    H      0.707730000000     0.208530000000     0.696090000000     0          
H1675    H      0.791230000000     0.292270000000     0.628060000000     0          
H1676    H      0.748650000000     0.748930000000     0.228770000000     0          
H1677    H      0.792270000000     0.791470000000     0.196090000000     0          
H1678    H      0.291230000000     0.292270000000     0.128060000000     0          
H1679    H      0.248650000000     0.748930000000     0.728770000000     0          
H1680    H      0.292270000000     0.791470000000     0.696090000000     0          
H1681    H      0.791230000000     0.707730000000     0.371940000000     0          
H1682    H      0.748650000000     0.251070000000     0.771230000000     0          
H1683    H      0.792270000000     0.208530000000     0.803910000000     0          
H1684    H      0.291230000000     0.707730000000     0.871940000000     0          
H1685    H      0.248650000000     0.251070000000     0.271230000000     0          
H1686    H      0.292270000000     0.208530000000     0.303910000000     0          
H1687    H      0.371940000000     0.707730000000     0.791230000000     0          
H1688    H      0.304860000000     0.208140000000     0.292680000000     0          
H1689    H      0.804860000000     0.708140000000     0.292680000000     0          
H1690    H      0.871940000000     0.207730000000     0.791230000000     0          
H1691    H      0.628060000000     0.292270000000     0.791230000000     0          
H1692    H      0.695140000000     0.791860000000     0.292680000000     0          
H1693    H      0.195140000000     0.291860000000     0.292680000000     0          
H1694    H      0.128060000000     0.792270000000     0.791230000000     0          
H1695    H      0.628060000000     0.707730000000     0.208770000000     0          
H1696    H      0.695140000000     0.208140000000     0.707320000000     0          
H1697    H      0.128060000000     0.207730000000     0.208770000000     0          
H1698    H      0.371940000000     0.292270000000     0.208770000000     0          
H1699    H      0.304860000000     0.791860000000     0.707320000000     0          
H1700    H      0.804860000000     0.291860000000     0.707320000000     0          
H1701    H      0.871940000000     0.792270000000     0.208770000000     0          
H1702    H      0.791230000000     0.371940000000     0.707730000000     0          
H1703    H      0.748650000000     0.771230000000     0.251070000000     0          
H1704    H      0.792270000000     0.803910000000     0.208530000000     0          
H1705    H      0.248650000000     0.271230000000     0.251070000000     0          
H1706    H      0.292270000000     0.303910000000     0.208530000000     0          
H1707    H      0.291230000000     0.871940000000     0.707730000000     0          
H1708    H      0.791230000000     0.628060000000     0.292270000000     0          
H1709    H      0.748650000000     0.228770000000     0.748930000000     0          
H1710    H      0.792270000000     0.196090000000     0.791470000000     0          
H1711    H      0.248650000000     0.728770000000     0.748930000000     0          
H1712    H      0.292270000000     0.696090000000     0.791470000000     0          
H1713    H      0.291230000000     0.128060000000     0.292270000000     0          
H1714    H      0.208770000000     0.628060000000     0.707730000000     0          
H1715    H      0.251350000000     0.228770000000     0.251070000000     0          
H1716    H      0.207730000000     0.196090000000     0.208530000000     0          
H1717    H      0.751350000000     0.728770000000     0.251070000000     0          
H1718    H      0.707730000000     0.696090000000     0.208530000000     0          
H1719    H      0.708770000000     0.128060000000     0.707730000000     0          
H1720    H      0.208770000000     0.371940000000     0.292270000000     0          
H1721    H      0.251350000000     0.771230000000     0.748930000000     0          
H1722    H      0.207730000000     0.803910000000     0.791470000000     0          
H1723    H      0.751350000000     0.271230000000     0.748930000000     0          
H1724    H      0.707730000000     0.303910000000     0.791470000000     0          
H1725    H      0.708770000000     0.871940000000     0.292270000000     0          
H1726    H      0.707730000000     0.791230000000     0.371940000000     0          
H1727    H      0.708140000000     0.292680000000     0.804860000000     0          
H1728    H      0.207730000000     0.791230000000     0.871940000000     0          
H1729    H      0.208140000000     0.292680000000     0.304860000000     0          
H1730    H      0.292270000000     0.791230000000     0.628060000000     0          
H1731    H      0.291860000000     0.292680000000     0.195140000000     0          
H1732    H      0.792270000000     0.791230000000     0.128060000000     0          
H1733    H      0.791860000000     0.292680000000     0.695140000000     0          
H1734    H      0.707730000000     0.208770000000     0.628060000000     0          
H1735    H      0.708140000000     0.707320000000     0.195140000000     0          
H1736    H      0.207730000000     0.208770000000     0.128060000000     0          
H1737    H      0.208140000000     0.707320000000     0.695140000000     0          
H1738    H      0.292270000000     0.208770000000     0.371940000000     0          
H1739    H      0.291860000000     0.707320000000     0.804860000000     0          
H1740    H      0.792270000000     0.208770000000     0.871940000000     0          
H1741    H      0.791860000000     0.707320000000     0.304860000000     0          
H1742    H      0.707730000000     0.371940000000     0.208770000000     0          
H1743    H      0.708140000000     0.804860000000     0.707320000000     0          
H1744    H      0.208140000000     0.304860000000     0.707320000000     0          
H1745    H      0.207730000000     0.871940000000     0.208770000000     0          
H1746    H      0.292270000000     0.628060000000     0.208770000000     0          
H1747    H      0.291860000000     0.195140000000     0.707320000000     0          
H1748    H      0.791860000000     0.695140000000     0.707320000000     0          
H1749    H      0.792270000000     0.128060000000     0.208770000000     0          
H1750    H      0.707730000000     0.628060000000     0.791230000000     0          
H1751    H      0.708140000000     0.195140000000     0.292680000000     0          
H1752    H      0.208140000000     0.695140000000     0.292680000000     0          
H1753    H      0.207730000000     0.128060000000     0.791230000000     0          
H1754    H      0.292270000000     0.371940000000     0.791230000000     0          
H1755    H      0.291860000000     0.804860000000     0.292680000000     0          
H1756    H      0.791860000000     0.304860000000     0.292680000000     0          
H1757    H      0.792270000000     0.871940000000     0.791230000000     0          
H1758    H      0.371940000000     0.791230000000     0.292270000000     0          
H1759    H      0.271230000000     0.248650000000     0.748930000000     0          
H1760    H      0.303910000000     0.292270000000     0.791470000000     0          
H1761    H      0.771230000000     0.748650000000     0.748930000000     0          
H1762    H      0.803910000000     0.792270000000     0.791470000000     0          
H1763    H      0.871940000000     0.291230000000     0.292270000000     0          
H1764    H      0.628060000000     0.791230000000     0.707730000000     0          
H1765    H      0.728770000000     0.248650000000     0.251070000000     0          
H1766    H      0.696090000000     0.292270000000     0.208530000000     0          
H1767    H      0.228770000000     0.748650000000     0.251070000000     0          
H1768    H      0.196090000000     0.792270000000     0.208530000000     0          
H1769    H      0.128060000000     0.291230000000     0.707730000000     0          
H1770    H      0.628060000000     0.208770000000     0.292270000000     0          
H1771    H      0.728770000000     0.751350000000     0.748930000000     0          
H1772    H      0.696090000000     0.707730000000     0.791470000000     0          
H1773    H      0.228770000000     0.251350000000     0.748930000000     0          
H1774    H      0.196090000000     0.207730000000     0.791470000000     0          
H1775    H      0.128060000000     0.708770000000     0.292270000000     0          
H1776    H      0.371940000000     0.208770000000     0.707730000000     0          
H1777    H      0.271230000000     0.751350000000     0.251070000000     0          
H1778    H      0.303910000000     0.707730000000     0.208530000000     0          
H1779    H      0.771230000000     0.251350000000     0.251070000000     0          
H1780    H      0.803910000000     0.207730000000     0.208530000000     0          
H1781    H      0.871940000000     0.708770000000     0.707730000000     0          
H1782    H      0.791230000000     0.707730000000     0.628060000000     0          
H1783    H      0.748650000000     0.251070000000     0.228770000000     0          
H1784    H      0.792270000000     0.208530000000     0.196090000000     0          
H1785    H      0.291230000000     0.707730000000     0.128060000000     0          
H1786    H      0.248650000000     0.251070000000     0.728770000000     0          
H1787    H      0.292270000000     0.208530000000     0.696090000000     0          
H1788    H      0.791230000000     0.292270000000     0.371940000000     0          
H1789    H      0.748650000000     0.748930000000     0.771230000000     0          
H1790    H      0.792270000000     0.791470000000     0.803910000000     0          
H1791    H      0.291230000000     0.292270000000     0.871940000000     0          
H1792    H      0.248650000000     0.748930000000     0.271230000000     0          
H1793    H      0.292270000000     0.791470000000     0.303910000000     0          
H1794    H      0.208770000000     0.707730000000     0.371940000000     0          
H1795    H      0.251350000000     0.251070000000     0.771230000000     0          
H1796    H      0.207730000000     0.208530000000     0.803910000000     0          
H1797    H      0.708770000000     0.707730000000     0.871940000000     0          
H1798    H      0.751350000000     0.251070000000     0.271230000000     0          
H1799    H      0.707730000000     0.208530000000     0.303910000000     0          
H1800    H      0.208770000000     0.292270000000     0.628060000000     0          
H1801    H      0.251350000000     0.748930000000     0.228770000000     0          
H1802    H      0.207730000000     0.791470000000     0.196090000000     0          
H1803    H      0.708770000000     0.292270000000     0.128060000000     0          
H1804    H      0.751350000000     0.748930000000     0.728770000000     0          
H1805    H      0.707730000000     0.791470000000     0.696090000000     0          
H1806    H      0.566180000000     0.165290000000     0.165290000000     0          
H1807    H      0.618540000000     0.210590000000     0.210590000000     0          
H1808    H      0.566180000000     0.665290000000     0.665290000000     0          
H1809    H      0.618540000000     0.710590000000     0.710590000000     0          
H1810    H      0.066180000000     0.165290000000     0.665290000000     0          
H1811    H      0.118540000000     0.210590000000     0.710590000000     0          
H1812    H      0.066180000000     0.665290000000     0.165290000000     0          
H1813    H      0.118540000000     0.710590000000     0.210590000000     0          
H1814    H      0.433820000000     0.834710000000     0.165290000000     0          
H1815    H      0.381460000000     0.789410000000     0.210590000000     0          
H1816    H      0.433820000000     0.334710000000     0.665290000000     0          
H1817    H      0.381460000000     0.289410000000     0.710590000000     0          
H1818    H      0.933820000000     0.834710000000     0.665290000000     0          
H1819    H      0.881460000000     0.789410000000     0.710590000000     0          
H1820    H      0.933820000000     0.334710000000     0.165290000000     0          
H1821    H      0.881460000000     0.289410000000     0.210590000000     0          
H1822    H      0.433820000000     0.165290000000     0.834710000000     0          
H1823    H      0.381460000000     0.210590000000     0.789410000000     0          
H1824    H      0.433820000000     0.665290000000     0.334710000000     0          
H1825    H      0.381460000000     0.710590000000     0.289410000000     0          
H1826    H      0.933820000000     0.165290000000     0.334710000000     0          
H1827    H      0.881460000000     0.210590000000     0.289410000000     0          
H1828    H      0.933820000000     0.665290000000     0.834710000000     0          
H1829    H      0.881460000000     0.710590000000     0.789410000000     0          
H1830    H      0.566180000000     0.834710000000     0.834710000000     0          
H1831    H      0.618540000000     0.789410000000     0.789410000000     0          
H1832    H      0.566180000000     0.334710000000     0.334710000000     0          
H1833    H      0.618540000000     0.289410000000     0.289410000000     0          
H1834    H      0.066180000000     0.834710000000     0.334710000000     0          
H1835    H      0.118540000000     0.789410000000     0.289410000000     0          
H1836    H      0.066180000000     0.334710000000     0.834710000000     0          
H1837    H      0.118540000000     0.289410000000     0.789410000000     0          
H1838    H      0.165290000000     0.566180000000     0.165290000000     0          
H1839    H      0.210590000000     0.618540000000     0.210590000000     0          
H1840    H      0.165290000000     0.066180000000     0.665290000000     0          
H1841    H      0.210590000000     0.118540000000     0.710590000000     0          
H1842    H      0.665290000000     0.566180000000     0.665290000000     0          
H1843    H      0.710590000000     0.618540000000     0.710590000000     0          
H1844    H      0.665290000000     0.066180000000     0.165290000000     0          
H1845    H      0.710590000000     0.118540000000     0.210590000000     0          
H1846    H      0.165290000000     0.433820000000     0.834710000000     0          
H1847    H      0.210590000000     0.381460000000     0.789410000000     0          
H1848    H      0.165290000000     0.933820000000     0.334710000000     0          
H1849    H      0.210590000000     0.881460000000     0.289410000000     0          
H1850    H      0.665290000000     0.433820000000     0.334710000000     0          
H1851    H      0.710590000000     0.381460000000     0.289410000000     0          
H1852    H      0.665290000000     0.933820000000     0.834710000000     0          
H1853    H      0.710590000000     0.881460000000     0.789410000000     0          
H1854    H      0.834710000000     0.433820000000     0.165290000000     0          
H1855    H      0.789410000000     0.381460000000     0.210590000000     0          
H1856    H      0.834710000000     0.933820000000     0.665290000000     0          
H1857    H      0.789410000000     0.881460000000     0.710590000000     0          
H1858    H      0.334710000000     0.433820000000     0.665290000000     0          
H1859    H      0.289410000000     0.381460000000     0.710590000000     0          
H1860    H      0.334710000000     0.933820000000     0.165290000000     0          
H1861    H      0.289410000000     0.881460000000     0.210590000000     0          
H1862    H      0.834710000000     0.566180000000     0.834710000000     0          
H1863    H      0.789410000000     0.618540000000     0.789410000000     0          
H1864    H      0.834710000000     0.066180000000     0.334710000000     0          
H1865    H      0.789410000000     0.118540000000     0.289410000000     0          
H1866    H      0.334710000000     0.566180000000     0.334710000000     0          
H1867    H      0.289410000000     0.618540000000     0.289410000000     0          
H1868    H      0.334710000000     0.066180000000     0.834710000000     0          
H1869    H      0.289410000000     0.118540000000     0.789410000000     0          
H1870    H      0.165290000000     0.165290000000     0.566180000000     0          
H1871    H      0.210590000000     0.210590000000     0.618540000000     0          
H1872    H      0.165290000000     0.665290000000     0.066180000000     0          
H1873    H      0.210590000000     0.710590000000     0.118540000000     0          
H1874    H      0.665290000000     0.165290000000     0.066180000000     0          
H1875    H      0.710590000000     0.210590000000     0.118540000000     0          
H1876    H      0.665290000000     0.665290000000     0.566180000000     0          
H1877    H      0.710590000000     0.710590000000     0.618540000000     0          
H1878    H      0.834710000000     0.165290000000     0.433820000000     0          
H1879    H      0.789410000000     0.210590000000     0.381460000000     0          
H1880    H      0.834710000000     0.665290000000     0.933820000000     0          
H1881    H      0.789410000000     0.710590000000     0.881460000000     0          
H1882    H      0.334710000000     0.165290000000     0.933820000000     0          
H1883    H      0.289410000000     0.210590000000     0.881460000000     0          
H1884    H      0.334710000000     0.665290000000     0.433820000000     0          
H1885    H      0.289410000000     0.710590000000     0.381460000000     0          
H1886    H      0.165290000000     0.834710000000     0.433820000000     0          
H1887    H      0.210590000000     0.789410000000     0.381460000000     0          
H1888    H      0.165290000000     0.334710000000     0.933820000000     0          
H1889    H      0.210590000000     0.289410000000     0.881460000000     0          
H1890    H      0.665290000000     0.834710000000     0.933820000000     0          
H1891    H      0.710590000000     0.789410000000     0.881460000000     0          
H1892    H      0.665290000000     0.334710000000     0.433820000000     0          
H1893    H      0.710590000000     0.289410000000     0.381460000000     0          
H1894    H      0.834710000000     0.834710000000     0.566180000000     0          
H1895    H      0.789410000000     0.789410000000     0.618540000000     0          
H1896    H      0.834710000000     0.334710000000     0.066180000000     0          
H1897    H      0.789410000000     0.289410000000     0.118540000000     0          
H1898    H      0.334710000000     0.834710000000     0.066180000000     0          
H1899    H      0.289410000000     0.789410000000     0.118540000000     0          
H1900    H      0.334710000000     0.334710000000     0.566180000000     0          
H1901    H      0.289410000000     0.289410000000     0.618540000000     0          
H1902    H      0.165290000000     0.566180000000     0.834710000000     0          
H1903    H      0.210590000000     0.618540000000     0.789410000000     0          
H1904    H      0.165290000000     0.066180000000     0.334710000000     0          
H1905    H      0.210590000000     0.118540000000     0.289410000000     0          
H1906    H      0.665290000000     0.566180000000     0.334710000000     0          
H1907    H      0.710590000000     0.618540000000     0.289410000000     0          
H1908    H      0.665290000000     0.066180000000     0.834710000000     0          
H1909    H      0.710590000000     0.118540000000     0.789410000000     0          
H1910    H      0.834710000000     0.433820000000     0.834710000000     0          
H1911    H      0.789410000000     0.381460000000     0.789410000000     0          
H1912    H      0.834710000000     0.933820000000     0.334710000000     0          
H1913    H      0.789410000000     0.881460000000     0.289410000000     0          
H1914    H      0.334710000000     0.433820000000     0.334710000000     0          
H1915    H      0.289410000000     0.381460000000     0.289410000000     0          
H1916    H      0.334710000000     0.933820000000     0.834710000000     0          
H1917    H      0.289410000000     0.881460000000     0.789410000000     0          
H1918    H      0.165290000000     0.433820000000     0.165290000000     0          
H1919    H      0.210590000000     0.381460000000     0.210590000000     0          
H1920    H      0.165290000000     0.933820000000     0.665290000000     0          
H1921    H      0.210590000000     0.881460000000     0.710590000000     0          
H1922    H      0.665290000000     0.433820000000     0.665290000000     0          
H1923    H      0.710590000000     0.381460000000     0.710590000000     0          
H1924    H      0.665290000000     0.933820000000     0.165290000000     0          
H1925    H      0.710590000000     0.881460000000     0.210590000000     0          
H1926    H      0.834710000000     0.566180000000     0.165290000000     0          
H1927    H      0.789410000000     0.618540000000     0.210590000000     0          
H1928    H      0.834710000000     0.066180000000     0.665290000000     0          
H1929    H      0.789410000000     0.118540000000     0.710590000000     0          
H1930    H      0.334710000000     0.566180000000     0.665290000000     0          
H1931    H      0.289410000000     0.618540000000     0.710590000000     0          
H1932    H      0.334710000000     0.066180000000     0.165290000000     0          
H1933    H      0.289410000000     0.118540000000     0.210590000000     0          
H1934    H      0.566180000000     0.165290000000     0.834710000000     0          
H1935    H      0.618540000000     0.210590000000     0.789410000000     0          
H1936    H      0.566180000000     0.665290000000     0.334710000000     0          
H1937    H      0.618540000000     0.710590000000     0.289410000000     0          
H1938    H      0.066180000000     0.165290000000     0.334710000000     0          
H1939    H      0.118540000000     0.210590000000     0.289410000000     0          
H1940    H      0.066180000000     0.665290000000     0.834710000000     0          
H1941    H      0.118540000000     0.710590000000     0.789410000000     0          
H1942    H      0.433820000000     0.165290000000     0.165290000000     0          
H1943    H      0.381460000000     0.210590000000     0.210590000000     0          
H1944    H      0.433820000000     0.665290000000     0.665290000000     0          
H1945    H      0.381460000000     0.710590000000     0.710590000000     0          
H1946    H      0.933820000000     0.165290000000     0.665290000000     0          
H1947    H      0.881460000000     0.210590000000     0.710590000000     0          
H1948    H      0.933820000000     0.665290000000     0.165290000000     0          
H1949    H      0.881460000000     0.710590000000     0.210590000000     0          
H1950    H      0.433820000000     0.834710000000     0.834710000000     0          
H1951    H      0.381460000000     0.789410000000     0.789410000000     0          
H1952    H      0.433820000000     0.334710000000     0.334710000000     0          
H1953    H      0.381460000000     0.289410000000     0.289410000000     0          
H1954    H      0.933820000000     0.834710000000     0.334710000000     0          
H1955    H      0.881460000000     0.789410000000     0.289410000000     0          
H1956    H      0.933820000000     0.334710000000     0.834710000000     0          
H1957    H      0.881460000000     0.289410000000     0.789410000000     0          
H1958    H      0.566180000000     0.834710000000     0.165290000000     0          
H1959    H      0.618540000000     0.789410000000     0.210590000000     0          
H1960    H      0.566180000000     0.334710000000     0.665290000000     0          
H1961    H      0.618540000000     0.289410000000     0.710590000000     0          
H1962    H      0.066180000000     0.834710000000     0.665290000000     0          
H1963    H      0.118540000000     0.789410000000     0.710590000000     0          
H1964    H      0.066180000000     0.334710000000     0.165290000000     0          
H1965    H      0.118540000000     0.289410000000     0.210590000000     0          
H1966    H      0.165290000000     0.165290000000     0.433820000000     0          
H1967    H      0.210590000000     0.210590000000     0.381460000000     0          
H1968    H      0.165290000000     0.665290000000     0.933820000000     0          
H1969    H      0.210590000000     0.710590000000     0.881460000000     0          
H1970    H      0.665290000000     0.165290000000     0.933820000000     0          
H1971    H      0.710590000000     0.210590000000     0.881460000000     0          
H1972    H      0.665290000000     0.665290000000     0.433820000000     0          
H1973    H      0.710590000000     0.710590000000     0.381460000000     0          
H1974    H      0.165290000000     0.834710000000     0.566180000000     0          
H1975    H      0.210590000000     0.789410000000     0.618540000000     0          
H1976    H      0.165290000000     0.334710000000     0.066180000000     0          
H1977    H      0.210590000000     0.289410000000     0.118540000000     0          
H1978    H      0.665290000000     0.834710000000     0.066180000000     0          
H1979    H      0.710590000000     0.789410000000     0.118540000000     0          
H1980    H      0.665290000000     0.334710000000     0.566180000000     0          
H1981    H      0.710590000000     0.289410000000     0.618540000000     0          
H1982    H      0.834710000000     0.165290000000     0.566180000000     0          
H1983    H      0.789410000000     0.210590000000     0.618540000000     0          
H1984    H      0.834710000000     0.665290000000     0.066180000000     0          
H1985    H      0.789410000000     0.710590000000     0.118540000000     0          
H1986    H      0.334710000000     0.165290000000     0.066180000000     0          
H1987    H      0.289410000000     0.210590000000     0.118540000000     0          
H1988    H      0.334710000000     0.665290000000     0.566180000000     0          
H1989    H      0.289410000000     0.710590000000     0.618540000000     0          
H1990    H      0.834710000000     0.834710000000     0.433820000000     0          
H1991    H      0.789410000000     0.789410000000     0.381460000000     0          
H1992    H      0.834710000000     0.334710000000     0.933820000000     0          
H1993    H      0.789410000000     0.289410000000     0.881460000000     0          
H1994    H      0.334710000000     0.834710000000     0.933820000000     0          
H1995    H      0.289410000000     0.789410000000     0.881460000000     0          
H1996    H      0.334710000000     0.334710000000     0.433820000000     0          
H1997    H      0.289410000000     0.289410000000     0.381460000000     0          
H1998    H      0.228770000000     0.748650000000     0.748930000000     0          
H1999    H      0.196090000000     0.792270000000     0.791470000000     0          
H2000    H      0.195140000000     0.708140000000     0.707320000000     0          


