data_NUSXEG

_audit_creation_method RASPA-1.0
_audit_creation_date 2020-12-11
_audit_author_name 'Rocio Bueno-Perez'

_cell_length_a    38.6484
_cell_length_b    38.6484
_cell_length_c    38.6484
_cell_angle_alpha 90
_cell_angle_beta  90
_cell_angle_gamma 90
_cell_volume      57729.1

_symmetry_cell_setting          triclinic
_symmetry_space_group_name_Hall 'P 1'
_symmetry_space_group_name_H-M  'P 1'
_symmetry_Int_Tables_number     1

_symmetry_equiv_pos_as_xyz 'x,y,z'

loop_
_atom_site_label
_atom_site_type_symbol
_atom_site_fract_x
_atom_site_fract_y
_atom_site_fract_z
_atom_site_charge
C1       C      0.482660000000     0.246970000000     0.108890000000     0          
H2       H      0.462630000000     0.245590000000     0.130500000000     0          
C3       C      0.471690000000     0.249230000000     0.073570000000     0          
C4       C      0.390900000000     0.220230000000     0.096720000000     0          
H5       H      0.396280000000     0.195780000000     0.081120000000     0          
C6       C      0.365230000000     0.220100000000     0.122410000000     0          
O7       O      0.320970000000     0.222190000000     0.178930000000     0          
C8       C      0.982660000000     0.746970000000     0.608890000000     0          
H9       H      0.962630000000     0.745590000000     0.630500000000     0          
C10      C      0.971690000000     0.749230000000     0.573570000000     0          
C11      C      0.890900000000     0.720230000000     0.596720000000     0          
H12      H      0.896280000000     0.695780000000     0.581120000000     0          
C13      C      0.865230000000     0.720100000000     0.622410000000     0          
O14      O      0.820970000000     0.722190000000     0.678930000000     0          
C15      C      0.517340000000     0.753030000000     0.108890000000     0          
H16      H      0.537370000000     0.754410000000     0.130500000000     0          
C17      C      0.528310000000     0.750770000000     0.073570000000     0          
C18      C      0.609100000000     0.779770000000     0.096720000000     0          
H19      H      0.603720000000     0.804220000000     0.081120000000     0          
C20      C      0.634770000000     0.779900000000     0.122410000000     0          
O21      O      0.679030000000     0.777810000000     0.178930000000     0          
C22      C      0.017340000000     0.253030000000     0.608890000000     0          
H23      H      0.037370000000     0.254410000000     0.630500000000     0          
C24      C      0.028310000000     0.250770000000     0.573570000000     0          
C25      C      0.109100000000     0.279770000000     0.596720000000     0          
H26      H      0.103720000000     0.304220000000     0.581120000000     0          
C27      C      0.134770000000     0.279900000000     0.622410000000     0          
O28      O      0.179030000000     0.277810000000     0.678930000000     0          
C29      C      0.517340000000     0.246970000000     0.891110000000     0          
H30      H      0.537370000000     0.245590000000     0.869500000000     0          
C31      C      0.528310000000     0.249230000000     0.926430000000     0          
C32      C      0.609100000000     0.220230000000     0.903280000000     0          
H33      H      0.603720000000     0.195780000000     0.918880000000     0          
C34      C      0.634770000000     0.220100000000     0.877590000000     0          
O35      O      0.679030000000     0.222190000000     0.821070000000     0          
C36      C      0.017340000000     0.746970000000     0.391110000000     0          
H37      H      0.037370000000     0.745590000000     0.369500000000     0          
C38      C      0.028310000000     0.749230000000     0.426430000000     0          
C39      C      0.109100000000     0.720230000000     0.403280000000     0          
H40      H      0.103720000000     0.695780000000     0.418880000000     0          
C41      C      0.134770000000     0.720100000000     0.377590000000     0          
O42      O      0.179030000000     0.722190000000     0.321070000000     0          
C43      C      0.482660000000     0.753030000000     0.891110000000     0          
H44      H      0.462630000000     0.754410000000     0.869500000000     0          
C45      C      0.471690000000     0.750770000000     0.926430000000     0          
C46      C      0.390900000000     0.779770000000     0.903280000000     0          
H47      H      0.396280000000     0.804220000000     0.918880000000     0          
C48      C      0.365230000000     0.779900000000     0.877590000000     0          
O49      O      0.320970000000     0.777810000000     0.821070000000     0          
C50      C      0.982660000000     0.253030000000     0.391110000000     0          
H51      H      0.962630000000     0.254410000000     0.369500000000     0          
C52      C      0.971690000000     0.250770000000     0.426430000000     0          
C53      C      0.890900000000     0.279770000000     0.403280000000     0          
H54      H      0.896280000000     0.304220000000     0.418880000000     0          
C55      C      0.865230000000     0.279900000000     0.377590000000     0          
O56      O      0.820970000000     0.277810000000     0.321070000000     0          
C57      C      0.108890000000     0.482660000000     0.246970000000     0          
H58      H      0.130500000000     0.462630000000     0.245590000000     0          
C59      C      0.073570000000     0.471690000000     0.249230000000     0          
C60      C      0.096720000000     0.390900000000     0.220230000000     0          
H61      H      0.081120000000     0.396280000000     0.195780000000     0          
C62      C      0.122410000000     0.365230000000     0.220100000000     0          
O63      O      0.178930000000     0.320970000000     0.222190000000     0          
C64      C      0.608890000000     0.982660000000     0.746970000000     0          
H65      H      0.630500000000     0.962630000000     0.745590000000     0          
C66      C      0.573570000000     0.971690000000     0.749230000000     0          
C67      C      0.596720000000     0.890900000000     0.720230000000     0          
H68      H      0.581120000000     0.896280000000     0.695780000000     0          
C69      C      0.622410000000     0.865230000000     0.720100000000     0          
O70      O      0.678930000000     0.820970000000     0.722190000000     0          
C71      C      0.108890000000     0.517340000000     0.753030000000     0          
H72      H      0.130500000000     0.537370000000     0.754410000000     0          
C73      C      0.073570000000     0.528310000000     0.750770000000     0          
C74      C      0.096720000000     0.609100000000     0.779770000000     0          
H75      H      0.081120000000     0.603720000000     0.804220000000     0          
C76      C      0.122410000000     0.634770000000     0.779900000000     0          
O77      O      0.178930000000     0.679030000000     0.777810000000     0          
C78      C      0.608890000000     0.017340000000     0.253030000000     0          
H79      H      0.630500000000     0.037370000000     0.254410000000     0          
C80      C      0.573570000000     0.028310000000     0.250770000000     0          
C81      C      0.596720000000     0.109100000000     0.279770000000     0          
H82      H      0.581120000000     0.103720000000     0.304220000000     0          
C83      C      0.622410000000     0.134770000000     0.279900000000     0          
O84      O      0.678930000000     0.179030000000     0.277810000000     0          
C85      C      0.891110000000     0.517340000000     0.246970000000     0          
H86      H      0.869500000000     0.537370000000     0.245590000000     0          
C87      C      0.926430000000     0.528310000000     0.249230000000     0          
C88      C      0.903280000000     0.609100000000     0.220230000000     0          
H89      H      0.918880000000     0.603720000000     0.195780000000     0          
C90      C      0.877590000000     0.634770000000     0.220100000000     0          
O91      O      0.821070000000     0.679030000000     0.222190000000     0          
C92      C      0.391110000000     0.017340000000     0.746970000000     0          
H93      H      0.369500000000     0.037370000000     0.745590000000     0          
C94      C      0.426430000000     0.028310000000     0.749230000000     0          
C95      C      0.403280000000     0.109100000000     0.720230000000     0          
H96      H      0.418880000000     0.103720000000     0.695780000000     0          
C97      C      0.377590000000     0.134770000000     0.720100000000     0          
O98      O      0.321070000000     0.179030000000     0.722190000000     0          
C99      C      0.891110000000     0.482660000000     0.753030000000     0          
H100     H      0.869500000000     0.462630000000     0.754410000000     0          
C101     C      0.926430000000     0.471690000000     0.750770000000     0          
C102     C      0.903280000000     0.390900000000     0.779770000000     0          
H103     H      0.918880000000     0.396280000000     0.804220000000     0          
C104     C      0.877590000000     0.365230000000     0.779900000000     0          
O105     O      0.821070000000     0.320970000000     0.777810000000     0          
C106     C      0.391110000000     0.982660000000     0.253030000000     0          
H107     H      0.369500000000     0.962630000000     0.254410000000     0          
C108     C      0.426430000000     0.971690000000     0.250770000000     0          
C109     C      0.403280000000     0.890900000000     0.279770000000     0          
H110     H      0.418880000000     0.896280000000     0.304220000000     0          
C111     C      0.377590000000     0.865230000000     0.279900000000     0          
O112     O      0.321070000000     0.820970000000     0.277810000000     0          
C113     C      0.246970000000     0.108890000000     0.482660000000     0          
H114     H      0.245590000000     0.130500000000     0.462630000000     0          
C115     C      0.249230000000     0.073570000000     0.471690000000     0          
C116     C      0.220230000000     0.096720000000     0.390900000000     0          
H117     H      0.195780000000     0.081120000000     0.396280000000     0          
C118     C      0.220100000000     0.122410000000     0.365230000000     0          
O119     O      0.222190000000     0.178930000000     0.320970000000     0          
C120     C      0.746970000000     0.608890000000     0.982660000000     0          
H121     H      0.745590000000     0.630500000000     0.962630000000     0          
C122     C      0.749230000000     0.573570000000     0.971690000000     0          
C123     C      0.720230000000     0.596720000000     0.890900000000     0          
H124     H      0.695780000000     0.581120000000     0.896280000000     0          
C125     C      0.720100000000     0.622410000000     0.865230000000     0          
O126     O      0.722190000000     0.678930000000     0.820970000000     0          
C127     C      0.753030000000     0.108890000000     0.517340000000     0          
H128     H      0.754410000000     0.130500000000     0.537370000000     0          
C129     C      0.750770000000     0.073570000000     0.528310000000     0          
C130     C      0.779770000000     0.096720000000     0.609100000000     0          
H131     H      0.804220000000     0.081120000000     0.603720000000     0          
C132     C      0.779900000000     0.122410000000     0.634770000000     0          
O133     O      0.777810000000     0.178930000000     0.679030000000     0          
C134     C      0.253030000000     0.608890000000     0.017340000000     0          
H135     H      0.254410000000     0.630500000000     0.037370000000     0          
C136     C      0.250770000000     0.573570000000     0.028310000000     0          
C137     C      0.279770000000     0.596720000000     0.109100000000     0          
H138     H      0.287910000000     0.571370000000     0.121800000000     0          
C139     C      0.279900000000     0.622410000000     0.134770000000     0          
O140     O      0.277810000000     0.678930000000     0.179030000000     0          
C141     C      0.246970000000     0.891110000000     0.517340000000     0          
H142     H      0.245590000000     0.869500000000     0.537370000000     0          
C143     C      0.249230000000     0.926430000000     0.528310000000     0          
C144     C      0.220230000000     0.903280000000     0.609100000000     0          
H145     H      0.195780000000     0.918880000000     0.603720000000     0          
C146     C      0.220100000000     0.877590000000     0.634770000000     0          
O147     O      0.222190000000     0.821070000000     0.679030000000     0          
C148     C      0.746970000000     0.391110000000     0.017340000000     0          
H149     H      0.745590000000     0.369500000000     0.037370000000     0          
C150     C      0.749230000000     0.426430000000     0.028310000000     0          
C151     C      0.720230000000     0.403280000000     0.109100000000     0          
H152     H      0.695780000000     0.418880000000     0.103720000000     0          
C153     C      0.720100000000     0.377590000000     0.134770000000     0          
O154     O      0.722190000000     0.321070000000     0.179030000000     0          
C155     C      0.753030000000     0.891110000000     0.482660000000     0          
H156     H      0.754410000000     0.869500000000     0.462630000000     0          
C157     C      0.750770000000     0.926430000000     0.471690000000     0          
C158     C      0.779770000000     0.903280000000     0.390900000000     0          
H159     H      0.804220000000     0.918880000000     0.396280000000     0          
C160     C      0.779900000000     0.877590000000     0.365230000000     0          
O161     O      0.777810000000     0.821070000000     0.320970000000     0          
C162     C      0.253030000000     0.391110000000     0.982660000000     0          
H163     H      0.254410000000     0.369500000000     0.962630000000     0          
C164     C      0.250770000000     0.426430000000     0.971690000000     0          
C165     C      0.279770000000     0.403280000000     0.890900000000     0          
H166     H      0.304220000000     0.418880000000     0.896280000000     0          
C167     C      0.279900000000     0.377590000000     0.865230000000     0          
O168     O      0.277810000000     0.321070000000     0.820970000000     0          
C169     C      0.246970000000     0.482660000000     0.891110000000     0          
H170     H      0.245590000000     0.462630000000     0.869500000000     0          
C171     C      0.249230000000     0.471690000000     0.926430000000     0          
C172     C      0.220230000000     0.390900000000     0.903280000000     0          
H173     H      0.195780000000     0.396280000000     0.918880000000     0          
C174     C      0.220100000000     0.365230000000     0.877590000000     0          
O175     O      0.222190000000     0.320970000000     0.821070000000     0          
C176     C      0.746970000000     0.982660000000     0.391110000000     0          
H177     H      0.745590000000     0.962630000000     0.369500000000     0          
C178     C      0.749230000000     0.971690000000     0.426430000000     0          
C179     C      0.720230000000     0.890900000000     0.403280000000     0          
H180     H      0.695780000000     0.896280000000     0.418880000000     0          
C181     C      0.720100000000     0.865230000000     0.377590000000     0          
O182     O      0.722190000000     0.820970000000     0.321070000000     0          
C183     C      0.753030000000     0.517340000000     0.891110000000     0          
H184     H      0.754410000000     0.537370000000     0.869500000000     0          
C185     C      0.750770000000     0.528310000000     0.926430000000     0          
C186     C      0.779770000000     0.609100000000     0.903280000000     0          
H187     H      0.804220000000     0.603720000000     0.918880000000     0          
C188     C      0.779900000000     0.634770000000     0.877590000000     0          
O189     O      0.777810000000     0.679030000000     0.821070000000     0          
C190     C      0.253030000000     0.017340000000     0.391110000000     0          
H191     H      0.254410000000     0.037370000000     0.369500000000     0          
C192     C      0.250770000000     0.028310000000     0.426430000000     0          
C193     C      0.279770000000     0.109100000000     0.403280000000     0          
H194     H      0.304220000000     0.103720000000     0.418880000000     0          
C195     C      0.279900000000     0.134770000000     0.377590000000     0          
O196     O      0.277810000000     0.179030000000     0.321070000000     0          
C197     C      0.246970000000     0.517340000000     0.108890000000     0          
H198     H      0.245590000000     0.537370000000     0.130500000000     0          
C199     C      0.249230000000     0.528310000000     0.073570000000     0          
C200     C      0.220230000000     0.609100000000     0.096720000000     0          
H201     H      0.195780000000     0.603720000000     0.081120000000     0          
C202     C      0.220100000000     0.634770000000     0.122410000000     0          
O203     O      0.222190000000     0.679030000000     0.178930000000     0          
C204     C      0.746970000000     0.017340000000     0.608890000000     0          
H205     H      0.745590000000     0.037370000000     0.630500000000     0          
C206     C      0.749230000000     0.028310000000     0.573570000000     0          
C207     C      0.720230000000     0.109100000000     0.596720000000     0          
H208     H      0.695780000000     0.103720000000     0.581120000000     0          
C209     C      0.720100000000     0.134770000000     0.622410000000     0          
O210     O      0.722190000000     0.179030000000     0.678930000000     0          
C211     C      0.753030000000     0.482660000000     0.108890000000     0          
H212     H      0.754410000000     0.462630000000     0.130500000000     0          
C213     C      0.750770000000     0.471690000000     0.073570000000     0          
C214     C      0.779770000000     0.390900000000     0.096720000000     0          
H215     H      0.804220000000     0.396280000000     0.081120000000     0          
C216     C      0.779900000000     0.365230000000     0.122410000000     0          
O217     O      0.777810000000     0.320970000000     0.178930000000     0          
C218     C      0.253030000000     0.982660000000     0.608890000000     0          
H219     H      0.254410000000     0.962630000000     0.630500000000     0          
C220     C      0.250770000000     0.971690000000     0.573570000000     0          
C221     C      0.279770000000     0.890900000000     0.596720000000     0          
H222     H      0.304220000000     0.896280000000     0.581120000000     0          
C223     C      0.279900000000     0.865230000000     0.622410000000     0          
O224     O      0.277810000000     0.820970000000     0.678930000000     0          
C225     C      0.482660000000     0.108890000000     0.753030000000     0          
H226     H      0.462630000000     0.130500000000     0.754410000000     0          
C227     C      0.471690000000     0.073570000000     0.750770000000     0          
C228     C      0.390900000000     0.096720000000     0.779770000000     0          
H229     H      0.396280000000     0.081120000000     0.804220000000     0          
C230     C      0.365230000000     0.122410000000     0.779900000000     0          
O231     O      0.320970000000     0.178930000000     0.777810000000     0          
C232     C      0.982660000000     0.608890000000     0.253030000000     0          
H233     H      0.962630000000     0.630500000000     0.254410000000     0          
C234     C      0.971690000000     0.573570000000     0.250770000000     0          
C235     C      0.890900000000     0.596720000000     0.279770000000     0          
H236     H      0.896280000000     0.581120000000     0.304220000000     0          
C237     C      0.865230000000     0.622410000000     0.279900000000     0          
O238     O      0.820970000000     0.678930000000     0.277810000000     0          
C239     C      0.517340000000     0.108890000000     0.246970000000     0          
H240     H      0.537370000000     0.130500000000     0.245590000000     0          
C241     C      0.528310000000     0.073570000000     0.249230000000     0          
C242     C      0.609100000000     0.096720000000     0.220230000000     0          
H243     H      0.603720000000     0.081120000000     0.195780000000     0          
C244     C      0.634770000000     0.122410000000     0.220100000000     0          
O245     O      0.679030000000     0.178930000000     0.222190000000     0          
C246     C      0.017340000000     0.608890000000     0.746970000000     0          
H247     H      0.037370000000     0.630500000000     0.745590000000     0          
C248     C      0.028310000000     0.573570000000     0.749230000000     0          
C249     C      0.109100000000     0.596720000000     0.720230000000     0          
H250     H      0.103720000000     0.581120000000     0.695780000000     0          
C251     C      0.134770000000     0.622410000000     0.720100000000     0          
O252     O      0.179030000000     0.678930000000     0.722190000000     0          
C253     C      0.517340000000     0.891110000000     0.753030000000     0          
H254     H      0.537370000000     0.869500000000     0.754410000000     0          
C255     C      0.528310000000     0.926430000000     0.750770000000     0          
C256     C      0.609100000000     0.903280000000     0.779770000000     0          
H257     H      0.603720000000     0.918880000000     0.804220000000     0          
C258     C      0.634770000000     0.877590000000     0.779900000000     0          
O259     O      0.679030000000     0.821070000000     0.777810000000     0          
C260     C      0.017340000000     0.391110000000     0.253030000000     0          
H261     H      0.037370000000     0.369500000000     0.254410000000     0          
C262     C      0.028310000000     0.426430000000     0.250770000000     0          
C263     C      0.109100000000     0.403280000000     0.279770000000     0          
H264     H      0.103720000000     0.418880000000     0.304220000000     0          
C265     C      0.134770000000     0.377590000000     0.279900000000     0          
O266     O      0.179030000000     0.321070000000     0.277810000000     0          
C267     C      0.482660000000     0.891110000000     0.246970000000     0          
H268     H      0.462630000000     0.869500000000     0.245590000000     0          
C269     C      0.471690000000     0.926430000000     0.249230000000     0          
C270     C      0.390900000000     0.903280000000     0.220230000000     0          
H271     H      0.396280000000     0.918880000000     0.195780000000     0          
C272     C      0.365230000000     0.877590000000     0.220100000000     0          
O273     O      0.320970000000     0.821070000000     0.222190000000     0          
C274     C      0.982660000000     0.391110000000     0.746970000000     0          
H275     H      0.962630000000     0.369500000000     0.745590000000     0          
C276     C      0.971690000000     0.426430000000     0.749230000000     0          
C277     C      0.890900000000     0.403280000000     0.720230000000     0          
H278     H      0.896280000000     0.418880000000     0.695780000000     0          
C279     C      0.865230000000     0.377590000000     0.720100000000     0          
O280     O      0.820970000000     0.321070000000     0.722190000000     0          
C281     C      0.108890000000     0.246970000000     0.517340000000     0          
H282     H      0.130500000000     0.245590000000     0.537370000000     0          
C283     C      0.073570000000     0.249230000000     0.528310000000     0          
C284     C      0.096720000000     0.220230000000     0.609100000000     0          
H285     H      0.081120000000     0.195780000000     0.603720000000     0          
C286     C      0.122410000000     0.220100000000     0.634770000000     0          
O287     O      0.178930000000     0.222190000000     0.679030000000     0          
C288     C      0.608890000000     0.746970000000     0.017340000000     0          
H289     H      0.630500000000     0.745590000000     0.037370000000     0          
C290     C      0.573570000000     0.749230000000     0.028310000000     0          
C291     C      0.596720000000     0.720230000000     0.109100000000     0          
H292     H      0.581120000000     0.695780000000     0.103720000000     0          
C293     C      0.622410000000     0.720100000000     0.134770000000     0          
O294     O      0.678930000000     0.722190000000     0.179030000000     0          
C295     C      0.108890000000     0.753030000000     0.482660000000     0          
H296     H      0.130500000000     0.754410000000     0.462630000000     0          
C297     C      0.073570000000     0.750770000000     0.471690000000     0          
C298     C      0.096720000000     0.779770000000     0.390900000000     0          
H299     H      0.081120000000     0.804220000000     0.396280000000     0          
C300     C      0.122410000000     0.779900000000     0.365230000000     0          
O301     O      0.178930000000     0.777810000000     0.320970000000     0          
C302     C      0.608890000000     0.253030000000     0.982660000000     0          
H303     H      0.630500000000     0.254410000000     0.962630000000     0          
C304     C      0.573570000000     0.250770000000     0.971690000000     0          
C305     C      0.596720000000     0.279770000000     0.890900000000     0          
H306     H      0.581120000000     0.304220000000     0.896280000000     0          
C307     C      0.622410000000     0.279900000000     0.865230000000     0          
O308     O      0.678930000000     0.277810000000     0.820970000000     0          
C309     C      0.891110000000     0.246970000000     0.482660000000     0          
H310     H      0.869500000000     0.245590000000     0.462630000000     0          
C311     C      0.926430000000     0.249230000000     0.471690000000     0          
C312     C      0.903280000000     0.220230000000     0.390900000000     0          
H313     H      0.918880000000     0.195780000000     0.396280000000     0          
C314     C      0.877590000000     0.220100000000     0.365230000000     0          
O315     O      0.821070000000     0.222190000000     0.320970000000     0          
C316     C      0.391110000000     0.746970000000     0.982660000000     0          
H317     H      0.369500000000     0.745590000000     0.962630000000     0          
C318     C      0.426430000000     0.749230000000     0.971690000000     0          
C319     C      0.403280000000     0.720230000000     0.890900000000     0          
H320     H      0.418880000000     0.695780000000     0.896280000000     0          
C321     C      0.377590000000     0.720100000000     0.865230000000     0          
O322     O      0.321070000000     0.722190000000     0.820970000000     0          
C323     C      0.891110000000     0.753030000000     0.517340000000     0          
H324     H      0.869500000000     0.754410000000     0.537370000000     0          
C325     C      0.926430000000     0.750770000000     0.528310000000     0          
C326     C      0.903280000000     0.779770000000     0.609100000000     0          
H327     H      0.918880000000     0.804220000000     0.603720000000     0          
C328     C      0.877590000000     0.779900000000     0.634770000000     0          
O329     O      0.821070000000     0.777810000000     0.679030000000     0          
C330     C      0.391110000000     0.253030000000     0.017340000000     0          
H331     H      0.369500000000     0.254410000000     0.037370000000     0          
C332     C      0.426430000000     0.250770000000     0.028310000000     0          
C333     C      0.403280000000     0.279770000000     0.109100000000     0          
H334     H      0.418880000000     0.304220000000     0.103720000000     0          
C335     C      0.377590000000     0.279900000000     0.134770000000     0          
O336     O      0.321070000000     0.277810000000     0.179030000000     0          
C337     C      0.517340000000     0.753030000000     0.891110000000     0          
H338     H      0.537370000000     0.754410000000     0.869500000000     0          
C339     C      0.528310000000     0.750770000000     0.926430000000     0          
C340     C      0.609100000000     0.779770000000     0.903280000000     0          
H341     H      0.603720000000     0.804220000000     0.918880000000     0          
C342     C      0.634770000000     0.779900000000     0.877590000000     0          
O343     O      0.679030000000     0.777810000000     0.821070000000     0          
C344     C      0.017340000000     0.253030000000     0.391110000000     0          
H345     H      0.037370000000     0.254410000000     0.369500000000     0          
C346     C      0.028310000000     0.250770000000     0.426430000000     0          
C347     C      0.109100000000     0.279770000000     0.403280000000     0          
H348     H      0.103720000000     0.304220000000     0.418880000000     0          
C349     C      0.134770000000     0.279900000000     0.377590000000     0          
O350     O      0.179030000000     0.277810000000     0.321070000000     0          
C351     C      0.482660000000     0.246970000000     0.891110000000     0          
H352     H      0.462630000000     0.245590000000     0.869500000000     0          
C353     C      0.471690000000     0.249230000000     0.926430000000     0          
C354     C      0.390900000000     0.220230000000     0.903280000000     0          
H355     H      0.396280000000     0.195780000000     0.918880000000     0          
C356     C      0.365230000000     0.220100000000     0.877590000000     0          
O357     O      0.320970000000     0.222190000000     0.821070000000     0          
C358     C      0.982660000000     0.746970000000     0.391110000000     0          
H359     H      0.962630000000     0.745590000000     0.369500000000     0          
C360     C      0.971690000000     0.749230000000     0.426430000000     0          
C361     C      0.890900000000     0.720230000000     0.403280000000     0          
H362     H      0.896280000000     0.695780000000     0.418880000000     0          
C363     C      0.865230000000     0.720100000000     0.377590000000     0          
O364     O      0.820970000000     0.722190000000     0.321070000000     0          
C365     C      0.482660000000     0.753030000000     0.108890000000     0          
H366     H      0.462630000000     0.754410000000     0.130500000000     0          
C367     C      0.471690000000     0.750770000000     0.073570000000     0          
C368     C      0.390900000000     0.779770000000     0.096720000000     0          
H369     H      0.396280000000     0.804220000000     0.081120000000     0          
C370     C      0.365230000000     0.779900000000     0.122410000000     0          
O371     O      0.320970000000     0.777810000000     0.178930000000     0          
C372     C      0.982660000000     0.253030000000     0.608890000000     0          
H373     H      0.962630000000     0.254410000000     0.630500000000     0          
C374     C      0.971690000000     0.250770000000     0.573570000000     0          
C375     C      0.890900000000     0.279770000000     0.596720000000     0          
H376     H      0.896280000000     0.304220000000     0.581120000000     0          
C377     C      0.865230000000     0.279900000000     0.622410000000     0          
O378     O      0.820970000000     0.277810000000     0.678930000000     0          
C379     C      0.517340000000     0.246970000000     0.108890000000     0          
H380     H      0.537370000000     0.245590000000     0.130500000000     0          
C381     C      0.528310000000     0.249230000000     0.073570000000     0          
C382     C      0.609100000000     0.220230000000     0.096720000000     0          
H383     H      0.603720000000     0.195780000000     0.081120000000     0          
C384     C      0.634770000000     0.220100000000     0.122410000000     0          
O385     O      0.679030000000     0.222190000000     0.178930000000     0          
C386     C      0.017340000000     0.746970000000     0.608890000000     0          
H387     H      0.037370000000     0.745590000000     0.630500000000     0          
C388     C      0.028310000000     0.749230000000     0.573570000000     0          
C389     C      0.109100000000     0.720230000000     0.596720000000     0          
H390     H      0.103720000000     0.695780000000     0.581120000000     0          
C391     C      0.134770000000     0.720100000000     0.622410000000     0          
O392     O      0.179030000000     0.722190000000     0.678930000000     0          
C393     C      0.891110000000     0.517340000000     0.753030000000     0          
H394     H      0.869500000000     0.537370000000     0.754410000000     0          
C395     C      0.926430000000     0.528310000000     0.750770000000     0          
C396     C      0.903280000000     0.609100000000     0.779770000000     0          
H397     H      0.918880000000     0.603720000000     0.804220000000     0          
C398     C      0.877590000000     0.634770000000     0.779900000000     0          
O399     O      0.821070000000     0.679030000000     0.777810000000     0          
C400     C      0.391110000000     0.017340000000     0.253030000000     0          
H401     H      0.369500000000     0.037370000000     0.254410000000     0          
C402     C      0.426430000000     0.028310000000     0.250770000000     0          
C403     C      0.403280000000     0.109100000000     0.279770000000     0          
H404     H      0.418880000000     0.103720000000     0.304220000000     0          
C405     C      0.377590000000     0.134770000000     0.279900000000     0          
O406     O      0.321070000000     0.179030000000     0.277810000000     0          
C407     C      0.891110000000     0.482660000000     0.246970000000     0          
H408     H      0.869500000000     0.462630000000     0.245590000000     0          
C409     C      0.926430000000     0.471690000000     0.249230000000     0          
C410     C      0.903280000000     0.390900000000     0.220230000000     0          
H411     H      0.918880000000     0.396280000000     0.195780000000     0          
C412     C      0.877590000000     0.365230000000     0.220100000000     0          
O413     O      0.821070000000     0.320970000000     0.222190000000     0          
C414     C      0.391110000000     0.982660000000     0.746970000000     0          
H415     H      0.369500000000     0.962630000000     0.745590000000     0          
C416     C      0.426430000000     0.971690000000     0.749230000000     0          
C417     C      0.403280000000     0.890900000000     0.720230000000     0          
H418     H      0.418880000000     0.896280000000     0.695780000000     0          
C419     C      0.377590000000     0.865230000000     0.720100000000     0          
O420     O      0.321070000000     0.820970000000     0.722190000000     0          
C421     C      0.108890000000     0.482660000000     0.753030000000     0          
H422     H      0.130500000000     0.462630000000     0.754410000000     0          
C423     C      0.073570000000     0.471690000000     0.750770000000     0          
C424     C      0.096720000000     0.390900000000     0.779770000000     0          
H425     H      0.081120000000     0.396280000000     0.804220000000     0          
C426     C      0.122410000000     0.365230000000     0.779900000000     0          
O427     O      0.178930000000     0.320970000000     0.777810000000     0          
C428     C      0.608890000000     0.982660000000     0.253030000000     0          
C429     C      0.573570000000     0.971690000000     0.250770000000     0          
C430     C      0.596720000000     0.890900000000     0.279770000000     0          
H431     H      0.581120000000     0.896280000000     0.304220000000     0          
C432     C      0.622410000000     0.865230000000     0.279900000000     0          
O433     O      0.678930000000     0.820970000000     0.277810000000     0          
C434     C      0.108890000000     0.517340000000     0.246970000000     0          
H435     H      0.130500000000     0.537370000000     0.245590000000     0          
C436     C      0.073570000000     0.528310000000     0.249230000000     0          
C437     C      0.096720000000     0.609100000000     0.220230000000     0          
H438     H      0.081120000000     0.603720000000     0.195780000000     0          
C439     C      0.122410000000     0.634770000000     0.220100000000     0          
O440     O      0.178930000000     0.679030000000     0.222190000000     0          
C441     C      0.608890000000     0.017340000000     0.746970000000     0          
H442     H      0.630500000000     0.037370000000     0.745590000000     0          
C443     C      0.573570000000     0.028310000000     0.749230000000     0          
C444     C      0.596720000000     0.109100000000     0.720230000000     0          
H445     H      0.581120000000     0.103720000000     0.695780000000     0          
C446     C      0.622410000000     0.134770000000     0.720100000000     0          
O447     O      0.678930000000     0.179030000000     0.722190000000     0          
C448     C      0.753030000000     0.891110000000     0.517340000000     0          
H449     H      0.754410000000     0.869500000000     0.537370000000     0          
C450     C      0.750770000000     0.926430000000     0.528310000000     0          
C451     C      0.779770000000     0.903280000000     0.609100000000     0          
H452     H      0.804220000000     0.918880000000     0.603720000000     0          
C453     C      0.779900000000     0.877590000000     0.634770000000     0          
O454     O      0.777810000000     0.821070000000     0.679030000000     0          
C455     C      0.253030000000     0.391110000000     0.017340000000     0          
H456     H      0.254410000000     0.369500000000     0.037370000000     0          
C457     C      0.250770000000     0.426430000000     0.028310000000     0          
C458     C      0.279770000000     0.403280000000     0.109100000000     0          
H459     H      0.304220000000     0.418880000000     0.103720000000     0          
C460     C      0.279900000000     0.377590000000     0.134770000000     0          
O461     O      0.277810000000     0.321070000000     0.179030000000     0          
C462     C      0.246970000000     0.891110000000     0.482660000000     0          
H463     H      0.245590000000     0.869500000000     0.462630000000     0          
C464     C      0.249230000000     0.926430000000     0.471690000000     0          
C465     C      0.220230000000     0.903280000000     0.390900000000     0          
H466     H      0.195780000000     0.918880000000     0.396280000000     0          
C467     C      0.220100000000     0.877590000000     0.365230000000     0          
O468     O      0.222190000000     0.821070000000     0.320970000000     0          
C469     C      0.746970000000     0.391110000000     0.982660000000     0          
H470     H      0.745590000000     0.369500000000     0.962630000000     0          
C471     C      0.749230000000     0.426430000000     0.971690000000     0          
C472     C      0.720230000000     0.403280000000     0.890900000000     0          
H473     H      0.695780000000     0.418880000000     0.896280000000     0          
C474     C      0.720100000000     0.377590000000     0.865230000000     0          
O475     O      0.722190000000     0.321070000000     0.820970000000     0          
C476     C      0.753030000000     0.108890000000     0.482660000000     0          
H477     H      0.754410000000     0.130500000000     0.462630000000     0          
C478     C      0.750770000000     0.073570000000     0.471690000000     0          
C479     C      0.779770000000     0.096720000000     0.390900000000     0          
H480     H      0.804220000000     0.081120000000     0.396280000000     0          
C481     C      0.779900000000     0.122410000000     0.365230000000     0          
O482     O      0.777810000000     0.178930000000     0.320970000000     0          
C483     C      0.253030000000     0.608890000000     0.982660000000     0          
H484     H      0.254410000000     0.630500000000     0.962630000000     0          
C485     C      0.250770000000     0.573570000000     0.971690000000     0          
C486     C      0.279770000000     0.596720000000     0.890900000000     0          
H487     H      0.304220000000     0.581120000000     0.896280000000     0          
C488     C      0.279900000000     0.622410000000     0.865230000000     0          
O489     O      0.277810000000     0.678930000000     0.820970000000     0          
C490     C      0.246970000000     0.108890000000     0.517340000000     0          
H491     H      0.245590000000     0.130500000000     0.537370000000     0          
C492     C      0.249230000000     0.073570000000     0.528310000000     0          
C493     C      0.220230000000     0.096720000000     0.609100000000     0          
H494     H      0.195780000000     0.081120000000     0.603720000000     0          
C495     C      0.220100000000     0.122410000000     0.634770000000     0          
O496     O      0.222190000000     0.178930000000     0.679030000000     0          
C497     C      0.746970000000     0.608890000000     0.017340000000     0          
H498     H      0.745590000000     0.630500000000     0.037370000000     0          
C499     C      0.749230000000     0.573570000000     0.028310000000     0          
C500     C      0.720230000000     0.596720000000     0.109100000000     0          
H501     H      0.695780000000     0.581120000000     0.103720000000     0          
C502     C      0.720100000000     0.622410000000     0.134770000000     0          
O503     O      0.722190000000     0.678930000000     0.179030000000     0          
C504     C      0.753030000000     0.517340000000     0.108890000000     0          
H505     H      0.754410000000     0.537370000000     0.130500000000     0          
C506     C      0.750770000000     0.528310000000     0.073570000000     0          
C507     C      0.779770000000     0.609100000000     0.096720000000     0          
H508     H      0.804220000000     0.603720000000     0.081120000000     0          
C509     C      0.779900000000     0.634770000000     0.122410000000     0          
O510     O      0.777810000000     0.679030000000     0.178930000000     0          
C511     C      0.253030000000     0.017340000000     0.608890000000     0          
H512     H      0.254410000000     0.037370000000     0.630500000000     0          
C513     C      0.250770000000     0.028310000000     0.573570000000     0          
C514     C      0.279770000000     0.109100000000     0.596720000000     0          
H515     H      0.304220000000     0.103720000000     0.581120000000     0          
C516     C      0.279900000000     0.134770000000     0.622410000000     0          
O517     O      0.277810000000     0.179030000000     0.678930000000     0          
C518     C      0.246970000000     0.482660000000     0.108890000000     0          
H519     H      0.245590000000     0.462630000000     0.130500000000     0          
C520     C      0.249230000000     0.471690000000     0.073570000000     0          
C521     C      0.220230000000     0.390900000000     0.096720000000     0          
H522     H      0.195780000000     0.396280000000     0.081120000000     0          
C523     C      0.220100000000     0.365230000000     0.122410000000     0          
O524     O      0.222190000000     0.320970000000     0.178930000000     0          
C525     C      0.746970000000     0.982660000000     0.608890000000     0          
H526     H      0.745590000000     0.962630000000     0.630500000000     0          
C527     C      0.749230000000     0.971690000000     0.573570000000     0          
C528     C      0.720230000000     0.890900000000     0.596720000000     0          
H529     H      0.695780000000     0.896280000000     0.581120000000     0          
C530     C      0.720100000000     0.865230000000     0.622410000000     0          
O531     O      0.722190000000     0.820970000000     0.678930000000     0          
C532     C      0.753030000000     0.482660000000     0.891110000000     0          
H533     H      0.754410000000     0.462630000000     0.869500000000     0          
C534     C      0.750770000000     0.471690000000     0.926430000000     0          
C535     C      0.779770000000     0.390900000000     0.903280000000     0          
H536     H      0.804220000000     0.396280000000     0.918880000000     0          
C537     C      0.779900000000     0.365230000000     0.877590000000     0          
O538     O      0.777810000000     0.320970000000     0.821070000000     0          
C539     C      0.253030000000     0.982660000000     0.391110000000     0          
H540     H      0.254410000000     0.962630000000     0.369500000000     0          
C541     C      0.250770000000     0.971690000000     0.426430000000     0          
C542     C      0.279770000000     0.890900000000     0.403280000000     0          
H543     H      0.304220000000     0.896280000000     0.418880000000     0          
C544     C      0.279900000000     0.865230000000     0.377590000000     0          
O545     O      0.277810000000     0.820970000000     0.321070000000     0          
C546     C      0.246970000000     0.517340000000     0.891110000000     0          
H547     H      0.245590000000     0.537370000000     0.869500000000     0          
C548     C      0.249230000000     0.528310000000     0.926430000000     0          
C549     C      0.220230000000     0.609100000000     0.903280000000     0          
H550     H      0.195780000000     0.603720000000     0.918880000000     0          
C551     C      0.220100000000     0.634770000000     0.877590000000     0          
O552     O      0.222190000000     0.679030000000     0.821070000000     0          
C553     C      0.746970000000     0.017340000000     0.391110000000     0          
H554     H      0.745590000000     0.037370000000     0.369500000000     0          
C555     C      0.749230000000     0.028310000000     0.426430000000     0          
C556     C      0.720230000000     0.109100000000     0.403280000000     0          
H557     H      0.695780000000     0.103720000000     0.418880000000     0          
C558     C      0.720100000000     0.134770000000     0.377590000000     0          
O559     O      0.722190000000     0.179030000000     0.321070000000     0          
C560     C      0.517340000000     0.891110000000     0.246970000000     0          
H561     H      0.537370000000     0.869500000000     0.245590000000     0          
C562     C      0.528310000000     0.926430000000     0.249230000000     0          
C563     C      0.609100000000     0.903280000000     0.220230000000     0          
H564     H      0.603720000000     0.918880000000     0.195780000000     0          
C565     C      0.634770000000     0.877590000000     0.220100000000     0          
O566     O      0.679030000000     0.821070000000     0.222190000000     0          
C567     C      0.017340000000     0.391110000000     0.746970000000     0          
H568     H      0.037370000000     0.369500000000     0.745590000000     0          
C569     C      0.028310000000     0.426430000000     0.749230000000     0          
C570     C      0.109100000000     0.403280000000     0.720230000000     0          
H571     H      0.103720000000     0.418880000000     0.695780000000     0          
C572     C      0.134770000000     0.377590000000     0.720100000000     0          
O573     O      0.179030000000     0.321070000000     0.722190000000     0          
C574     C      0.482660000000     0.891110000000     0.753030000000     0          
H575     H      0.462630000000     0.869500000000     0.754410000000     0          
C576     C      0.471690000000     0.926430000000     0.750770000000     0          
C577     C      0.390900000000     0.903280000000     0.779770000000     0          
H578     H      0.396280000000     0.918880000000     0.804220000000     0          
C579     C      0.365230000000     0.877590000000     0.779900000000     0          
O580     O      0.320970000000     0.821070000000     0.777810000000     0          
C581     C      0.982660000000     0.391110000000     0.253030000000     0          
H582     H      0.962630000000     0.369500000000     0.254410000000     0          
C583     C      0.971690000000     0.426430000000     0.250770000000     0          
C584     C      0.890900000000     0.403280000000     0.279770000000     0          
H585     H      0.896280000000     0.418880000000     0.304220000000     0          
C586     C      0.865230000000     0.377590000000     0.279900000000     0          
O587     O      0.820970000000     0.321070000000     0.277810000000     0          
C588     C      0.482660000000     0.108890000000     0.246970000000     0          
H589     H      0.462630000000     0.130500000000     0.245590000000     0          
C590     C      0.471690000000     0.073570000000     0.249230000000     0          
C591     C      0.390900000000     0.096720000000     0.220230000000     0          
H592     H      0.396280000000     0.081120000000     0.195780000000     0          
C593     C      0.365230000000     0.122410000000     0.220100000000     0          
O594     O      0.320970000000     0.178930000000     0.222190000000     0          
C595     C      0.982660000000     0.608890000000     0.746970000000     0          
H596     H      0.962630000000     0.630500000000     0.745590000000     0          
C597     C      0.971690000000     0.573570000000     0.749230000000     0          
C598     C      0.890900000000     0.596720000000     0.720230000000     0          
H599     H      0.896280000000     0.581120000000     0.695780000000     0          
C600     C      0.865230000000     0.622410000000     0.720100000000     0          
O601     O      0.820970000000     0.678930000000     0.722190000000     0          
C602     C      0.517340000000     0.108890000000     0.753030000000     0          
H603     H      0.537370000000     0.130500000000     0.754410000000     0          
C604     C      0.528310000000     0.073570000000     0.750770000000     0          
C605     C      0.609100000000     0.096720000000     0.779770000000     0          
H606     H      0.603720000000     0.081120000000     0.804220000000     0          
C607     C      0.634770000000     0.122410000000     0.779900000000     0          
O608     O      0.679030000000     0.178930000000     0.777810000000     0          
C609     C      0.017340000000     0.608890000000     0.253030000000     0          
H610     H      0.037370000000     0.630500000000     0.254410000000     0          
C611     C      0.028310000000     0.573570000000     0.250770000000     0          
C612     C      0.109100000000     0.596720000000     0.279770000000     0          
H613     H      0.103720000000     0.581120000000     0.304220000000     0          
C614     C      0.134770000000     0.622410000000     0.279900000000     0          
O615     O      0.179030000000     0.678930000000     0.277810000000     0          
C616     C      0.891110000000     0.753030000000     0.482660000000     0          
H617     H      0.869500000000     0.754410000000     0.462630000000     0          
C618     C      0.926430000000     0.750770000000     0.471690000000     0          
C619     C      0.903280000000     0.779770000000     0.390900000000     0          
H620     H      0.918880000000     0.804220000000     0.396280000000     0          
C621     C      0.877590000000     0.779900000000     0.365230000000     0          
O622     O      0.821070000000     0.777810000000     0.320970000000     0          
C623     C      0.391110000000     0.253030000000     0.982660000000     0          
H624     H      0.369500000000     0.254410000000     0.962630000000     0          
C625     C      0.426430000000     0.250770000000     0.971690000000     0          
C626     C      0.403280000000     0.279770000000     0.890900000000     0          
H627     H      0.418880000000     0.304220000000     0.896280000000     0          
C628     C      0.377590000000     0.279900000000     0.865230000000     0          
O629     O      0.321070000000     0.277810000000     0.820970000000     0          
C630     C      0.891110000000     0.246970000000     0.517340000000     0          
H631     H      0.869500000000     0.245590000000     0.537370000000     0          
C632     C      0.926430000000     0.249230000000     0.528310000000     0          
C633     C      0.903280000000     0.220230000000     0.609100000000     0          
H634     H      0.918880000000     0.195780000000     0.603720000000     0          
C635     C      0.877590000000     0.220100000000     0.634770000000     0          
O636     O      0.821070000000     0.222190000000     0.679030000000     0          
C637     C      0.391110000000     0.746970000000     0.017340000000     0          
H638     H      0.369500000000     0.745590000000     0.037370000000     0          
C639     C      0.426430000000     0.749230000000     0.028310000000     0          
C640     C      0.403280000000     0.720230000000     0.109100000000     0          
H641     H      0.418880000000     0.695780000000     0.103720000000     0          
C642     C      0.377590000000     0.720100000000     0.134770000000     0          
O643     O      0.321070000000     0.722190000000     0.179030000000     0          
C644     C      0.108890000000     0.753030000000     0.517340000000     0          
H645     H      0.130500000000     0.754410000000     0.537370000000     0          
C646     C      0.073570000000     0.750770000000     0.528310000000     0          
C647     C      0.096720000000     0.779770000000     0.609100000000     0          
H648     H      0.081120000000     0.804220000000     0.603720000000     0          
C649     C      0.122410000000     0.779900000000     0.634770000000     0          
O650     O      0.178930000000     0.777810000000     0.679030000000     0          
C651     C      0.608890000000     0.253030000000     0.017340000000     0          
H652     H      0.630500000000     0.254410000000     0.037370000000     0          
C653     C      0.573570000000     0.250770000000     0.028310000000     0          
C654     C      0.596720000000     0.279770000000     0.109100000000     0          
H655     H      0.581120000000     0.304220000000     0.103720000000     0          
C656     C      0.622410000000     0.279900000000     0.134770000000     0          
O657     O      0.678930000000     0.277810000000     0.179030000000     0          
C658     C      0.108890000000     0.246970000000     0.482660000000     0          
H659     H      0.130500000000     0.245590000000     0.462630000000     0          
C660     C      0.073570000000     0.249230000000     0.471690000000     0          
C661     C      0.096720000000     0.220230000000     0.390900000000     0          
H662     H      0.081120000000     0.195780000000     0.396280000000     0          
C663     C      0.122410000000     0.220100000000     0.365230000000     0          
O664     O      0.178930000000     0.222190000000     0.320970000000     0          
C665     C      0.608890000000     0.746970000000     0.982660000000     0          
H666     H      0.630500000000     0.745590000000     0.962630000000     0          
C667     C      0.573570000000     0.749230000000     0.971690000000     0          
C668     C      0.596720000000     0.720230000000     0.890900000000     0          
H669     H      0.581120000000     0.695780000000     0.896280000000     0          
C670     C      0.622410000000     0.720100000000     0.865230000000     0          
O671     O      0.678930000000     0.722190000000     0.820970000000     0          
O672     O      0.217380000000     0.782620000000     0.782620000000     0          
O673     O      0.282620000000     0.717380000000     0.717380000000     0          
Zr674    Zr     0.287160000000     0.212770000000     0.212770000000     0          
O675     O      0.316250000000     0.245520000000     0.245520000000     0          
Zr676    Zr     0.787160000000     0.712770000000     0.712770000000     0          
O677     O      0.816250000000     0.745520000000     0.745520000000     0          
Zr678    Zr     0.712840000000     0.787230000000     0.212770000000     0          
O679     O      0.683750000000     0.754480000000     0.245520000000     0          
Zr680    Zr     0.212840000000     0.287230000000     0.712770000000     0          
O681     O      0.183750000000     0.254480000000     0.745520000000     0          
Zr682    Zr     0.712840000000     0.212770000000     0.787230000000     0          
O683     O      0.683750000000     0.245520000000     0.754480000000     0          
Zr684    Zr     0.212840000000     0.712770000000     0.287230000000     0          
O685     O      0.183750000000     0.745520000000     0.254480000000     0          
Zr686    Zr     0.287160000000     0.787230000000     0.787230000000     0          
O687     O      0.316250000000     0.754480000000     0.754480000000     0          
Zr688    Zr     0.787160000000     0.287230000000     0.287230000000     0          
O689     O      0.816250000000     0.254480000000     0.254480000000     0          
Zr690    Zr     0.212770000000     0.287160000000     0.212770000000     0          
O691     O      0.245520000000     0.316250000000     0.245520000000     0          
Zr692    Zr     0.712770000000     0.787160000000     0.712770000000     0          
O693     O      0.745520000000     0.816250000000     0.745520000000     0          
Zr694    Zr     0.212770000000     0.712840000000     0.787230000000     0          
O695     O      0.245520000000     0.683750000000     0.754480000000     0          
Zr696    Zr     0.712770000000     0.212840000000     0.287230000000     0          
O697     O      0.745520000000     0.183750000000     0.254480000000     0          
Zr698    Zr     0.787230000000     0.712840000000     0.212770000000     0          
O699     O      0.754480000000     0.683750000000     0.245520000000     0          
Zr700    Zr     0.287230000000     0.212840000000     0.712770000000     0          
O701     O      0.254480000000     0.183750000000     0.745520000000     0          
Zr702    Zr     0.787230000000     0.287160000000     0.787230000000     0          
O703     O      0.754480000000     0.316250000000     0.754480000000     0          
Zr704    Zr     0.287230000000     0.787160000000     0.287230000000     0          
O705     O      0.254480000000     0.816250000000     0.254480000000     0          
Zr706    Zr     0.212770000000     0.212770000000     0.287160000000     0          
O707     O      0.245520000000     0.245520000000     0.316250000000     0          
Zr708    Zr     0.712770000000     0.712770000000     0.787160000000     0          
O709     O      0.745520000000     0.745520000000     0.816250000000     0          
Zr710    Zr     0.787230000000     0.212770000000     0.712840000000     0          
O711     O      0.754480000000     0.245520000000     0.683750000000     0          
Zr712    Zr     0.287230000000     0.712770000000     0.212840000000     0          
O713     O      0.254480000000     0.745520000000     0.183750000000     0          
Zr714    Zr     0.212770000000     0.787230000000     0.712840000000     0          
O715     O      0.245520000000     0.754480000000     0.683750000000     0          
Zr716    Zr     0.712770000000     0.287230000000     0.212840000000     0          
O717     O      0.745520000000     0.254480000000     0.183750000000     0          
Zr718    Zr     0.787230000000     0.787230000000     0.287160000000     0          
O719     O      0.754480000000     0.754480000000     0.316250000000     0          
Zr720    Zr     0.287230000000     0.287230000000     0.787160000000     0          
O721     O      0.254480000000     0.254480000000     0.816250000000     0          
Zr722    Zr     0.212770000000     0.287160000000     0.787230000000     0          
O723     O      0.245520000000     0.316250000000     0.754480000000     0          
Zr724    Zr     0.712770000000     0.787160000000     0.287230000000     0          
O725     O      0.745520000000     0.816250000000     0.254480000000     0          
Zr726    Zr     0.787230000000     0.712840000000     0.787230000000     0          
O727     O      0.754480000000     0.683750000000     0.754480000000     0          
Zr728    Zr     0.287230000000     0.212840000000     0.287230000000     0          
O729     O      0.254480000000     0.183750000000     0.254480000000     0          
Zr730    Zr     0.212770000000     0.712840000000     0.212770000000     0          
O731     O      0.245520000000     0.683750000000     0.245520000000     0          
Zr732    Zr     0.712770000000     0.212840000000     0.712770000000     0          
O733     O      0.745520000000     0.183750000000     0.745520000000     0          
Zr734    Zr     0.787230000000     0.287160000000     0.212770000000     0          
O735     O      0.754480000000     0.316250000000     0.245520000000     0          
Zr736    Zr     0.287230000000     0.787160000000     0.712770000000     0          
O737     O      0.254480000000     0.816250000000     0.745520000000     0          
Zr738    Zr     0.287160000000     0.212770000000     0.787230000000     0          
O739     O      0.316250000000     0.245520000000     0.754480000000     0          
Zr740    Zr     0.787160000000     0.712770000000     0.287230000000     0          
O741     O      0.816250000000     0.745520000000     0.254480000000     0          
Zr742    Zr     0.712840000000     0.212770000000     0.212770000000     0          
O743     O      0.683750000000     0.245520000000     0.245520000000     0          
Zr744    Zr     0.212840000000     0.712770000000     0.712770000000     0          
O745     O      0.183750000000     0.745520000000     0.745520000000     0          
Zr746    Zr     0.712840000000     0.787230000000     0.787230000000     0          
O747     O      0.683750000000     0.754480000000     0.754480000000     0          
Zr748    Zr     0.212840000000     0.287230000000     0.287230000000     0          
O749     O      0.183750000000     0.254480000000     0.254480000000     0          
Zr750    Zr     0.287160000000     0.787230000000     0.212770000000     0          
O751     O      0.316250000000     0.754480000000     0.245520000000     0          
Zr752    Zr     0.787160000000     0.287230000000     0.712770000000     0          
O753     O      0.816250000000     0.254480000000     0.745520000000     0          
Zr754    Zr     0.212770000000     0.212770000000     0.712840000000     0          
O755     O      0.245520000000     0.245520000000     0.683750000000     0          
Zr756    Zr     0.712770000000     0.712770000000     0.212840000000     0          
O757     O      0.745520000000     0.745520000000     0.183750000000     0          
Zr758    Zr     0.212770000000     0.787230000000     0.287160000000     0          
O759     O      0.245520000000     0.754480000000     0.316250000000     0          
Zr760    Zr     0.712770000000     0.287230000000     0.787160000000     0          
O761     O      0.745520000000     0.254480000000     0.816250000000     0          
Zr762    Zr     0.787230000000     0.212770000000     0.287160000000     0          
O763     O      0.754480000000     0.245520000000     0.316250000000     0          
Zr764    Zr     0.287230000000     0.712770000000     0.787160000000     0          
O765     O      0.254480000000     0.745520000000     0.816250000000     0          
Zr766    Zr     0.787230000000     0.787230000000     0.712840000000     0          
O767     O      0.754480000000     0.754480000000     0.683750000000     0          
Zr768    Zr     0.287230000000     0.287230000000     0.212840000000     0          
N769     N      0.500000000000     0.250170000000     0.052160000000     0          
N770     N      0.000000000000     0.750170000000     0.552160000000     0          
N771     N      0.500000000000     0.749830000000     0.052160000000     0          
N772     N      0.000000000000     0.249830000000     0.552160000000     0          
N773     N      0.500000000000     0.250170000000     0.947840000000     0          
N774     N      0.000000000000     0.750170000000     0.447840000000     0          
N775     N      0.500000000000     0.749830000000     0.947840000000     0          
N776     N      0.000000000000     0.249830000000     0.447840000000     0          
N777     N      0.052160000000     0.500000000000     0.250170000000     0          
N778     N      0.552160000000     0.000000000000     0.750170000000     0          
N779     N      0.052160000000     0.500000000000     0.749830000000     0          
N780     N      0.552160000000     0.000000000000     0.249830000000     0          
N781     N      0.947840000000     0.500000000000     0.250170000000     0          
N782     N      0.447840000000     0.000000000000     0.750170000000     0          
N783     N      0.947840000000     0.500000000000     0.749830000000     0          
N784     N      0.447840000000     0.000000000000     0.249830000000     0          
N785     N      0.250170000000     0.052160000000     0.500000000000     0          
N786     N      0.750170000000     0.552160000000     0.000000000000     0          
N787     N      0.749830000000     0.052160000000     0.500000000000     0          
N788     N      0.249830000000     0.552160000000     0.000000000000     0          
N789     N      0.250170000000     0.947840000000     0.500000000000     0          
N790     N      0.750170000000     0.447840000000     0.000000000000     0          
N791     N      0.749830000000     0.947840000000     0.500000000000     0          
N792     N      0.249830000000     0.447840000000     0.000000000000     0          
N793     N      0.250170000000     0.500000000000     0.947840000000     0          
N794     N      0.750170000000     0.000000000000     0.447840000000     0          
N795     N      0.749830000000     0.500000000000     0.947840000000     0          
N796     N      0.249830000000     0.000000000000     0.447840000000     0          
N797     N      0.250170000000     0.500000000000     0.052160000000     0          
N798     N      0.750170000000     0.000000000000     0.552160000000     0          
N799     N      0.749830000000     0.500000000000     0.052160000000     0          
N800     N      0.249830000000     0.000000000000     0.552160000000     0          
N801     N      0.500000000000     0.052160000000     0.749830000000     0          
N802     N      0.000000000000     0.552160000000     0.249830000000     0          
N803     N      0.500000000000     0.052160000000     0.250170000000     0          
N804     N      0.000000000000     0.552160000000     0.750170000000     0          
N805     N      0.500000000000     0.947840000000     0.749830000000     0          
N806     N      0.000000000000     0.447840000000     0.249830000000     0          
N807     N      0.500000000000     0.947840000000     0.250170000000     0          
N808     N      0.000000000000     0.447840000000     0.750170000000     0          
N809     N      0.052160000000     0.250170000000     0.500000000000     0          
N810     N      0.552160000000     0.750170000000     0.000000000000     0          
N811     N      0.052160000000     0.749830000000     0.500000000000     0          
N812     N      0.552160000000     0.249830000000     0.000000000000     0          
N813     N      0.947840000000     0.250170000000     0.500000000000     0          
N814     N      0.447840000000     0.750170000000     0.000000000000     0          
N815     N      0.947840000000     0.749830000000     0.500000000000     0          
N816     N      0.447840000000     0.249830000000     0.000000000000     0          
C817     C      0.409640000000     0.250000000000     0.090360000000     0          
C818     C      0.358870000000     0.250000000000     0.141130000000     0          
C819     C      0.437200000000     0.250000000000     0.062800000000     0          
C820     C      0.331420000000     0.250000000000     0.168580000000     0          
C821     C      0.590360000000     0.750000000000     0.090360000000     0          
C822     C      0.641130000000     0.750000000000     0.141130000000     0          
C823     C      0.562800000000     0.750000000000     0.062800000000     0          
C824     C      0.668580000000     0.750000000000     0.168580000000     0          
C825     C      0.590360000000     0.250000000000     0.909640000000     0          
C826     C      0.641130000000     0.250000000000     0.858870000000     0          
C827     C      0.562800000000     0.250000000000     0.937200000000     0          
C828     C      0.668580000000     0.250000000000     0.831420000000     0          
C829     C      0.409640000000     0.750000000000     0.909640000000     0          
C830     C      0.358870000000     0.750000000000     0.858870000000     0          
C831     C      0.437200000000     0.750000000000     0.937200000000     0          
C832     C      0.331420000000     0.750000000000     0.831420000000     0          
C833     C      0.090360000000     0.409640000000     0.250000000000     0          
C834     C      0.141130000000     0.358870000000     0.250000000000     0          
C835     C      0.062800000000     0.437200000000     0.250000000000     0          
C836     C      0.168580000000     0.331420000000     0.250000000000     0          
C837     C      0.090360000000     0.590360000000     0.750000000000     0          
C838     C      0.141130000000     0.641130000000     0.750000000000     0          
C839     C      0.062800000000     0.562800000000     0.750000000000     0          
C840     C      0.168580000000     0.668580000000     0.750000000000     0          
C841     C      0.909640000000     0.590360000000     0.250000000000     0          
C842     C      0.858870000000     0.641130000000     0.250000000000     0          
C843     C      0.937200000000     0.562800000000     0.250000000000     0          
C844     C      0.831420000000     0.668580000000     0.250000000000     0          
C845     C      0.909640000000     0.409640000000     0.750000000000     0          
C846     C      0.858870000000     0.358870000000     0.750000000000     0          
C847     C      0.937200000000     0.437200000000     0.750000000000     0          
C848     C      0.831420000000     0.331420000000     0.750000000000     0          
C849     C      0.250000000000     0.090360000000     0.409640000000     0          
C850     C      0.250000000000     0.141130000000     0.358870000000     0          
C851     C      0.250000000000     0.062800000000     0.437200000000     0          
C852     C      0.250000000000     0.168580000000     0.331420000000     0          
C853     C      0.750000000000     0.090360000000     0.590360000000     0          
C854     C      0.750000000000     0.141130000000     0.641130000000     0          
C855     C      0.750000000000     0.062800000000     0.562800000000     0          
C856     C      0.750000000000     0.168580000000     0.668580000000     0          
C857     C      0.250000000000     0.909640000000     0.590360000000     0          
C858     C      0.250000000000     0.858870000000     0.641130000000     0          
C859     C      0.250000000000     0.937200000000     0.562800000000     0          
C860     C      0.250000000000     0.831420000000     0.668580000000     0          
C861     C      0.750000000000     0.909640000000     0.409640000000     0          
C862     C      0.750000000000     0.858870000000     0.358870000000     0          
C863     C      0.750000000000     0.937200000000     0.437200000000     0          
C864     C      0.750000000000     0.831420000000     0.331420000000     0          
C865     C      0.250000000000     0.409640000000     0.909640000000     0          
C866     C      0.250000000000     0.358870000000     0.858870000000     0          
C867     C      0.250000000000     0.437200000000     0.937200000000     0          
C868     C      0.250000000000     0.331420000000     0.831420000000     0          
C869     C      0.750000000000     0.590360000000     0.909640000000     0          
C870     C      0.750000000000     0.641130000000     0.858870000000     0          
C871     C      0.750000000000     0.562800000000     0.937200000000     0          
C872     C      0.750000000000     0.668580000000     0.831420000000     0          
C873     C      0.250000000000     0.590360000000     0.090360000000     0          
C874     C      0.250000000000     0.641130000000     0.141130000000     0          
C875     C      0.250000000000     0.562800000000     0.062800000000     0          
C876     C      0.250000000000     0.668580000000     0.168580000000     0          
C877     C      0.750000000000     0.409640000000     0.090360000000     0          
C878     C      0.750000000000     0.358870000000     0.141130000000     0          
C879     C      0.750000000000     0.437200000000     0.062800000000     0          
C880     C      0.750000000000     0.331420000000     0.168580000000     0          
C881     C      0.409640000000     0.090360000000     0.750000000000     0          
C882     C      0.358870000000     0.141130000000     0.750000000000     0          
C883     C      0.437200000000     0.062800000000     0.750000000000     0          
C884     C      0.331420000000     0.168580000000     0.750000000000     0          
C885     C      0.590360000000     0.090360000000     0.250000000000     0          
C886     C      0.641130000000     0.141130000000     0.250000000000     0          
C887     C      0.562800000000     0.062800000000     0.250000000000     0          
C888     C      0.668580000000     0.168580000000     0.250000000000     0          
C889     C      0.590360000000     0.909640000000     0.750000000000     0          
C890     C      0.641130000000     0.858870000000     0.750000000000     0          
C891     C      0.562800000000     0.937200000000     0.750000000000     0          
C892     C      0.668580000000     0.831420000000     0.750000000000     0          
C893     C      0.409640000000     0.909640000000     0.250000000000     0          
C894     C      0.358870000000     0.858870000000     0.250000000000     0          
C895     C      0.437200000000     0.937200000000     0.250000000000     0          
C896     C      0.331420000000     0.831420000000     0.250000000000     0          
C897     C      0.090360000000     0.250000000000     0.590360000000     0          
C898     C      0.141130000000     0.250000000000     0.641130000000     0          
C899     C      0.062800000000     0.250000000000     0.562800000000     0          
C900     C      0.168580000000     0.250000000000     0.668580000000     0          
C901     C      0.090360000000     0.750000000000     0.409640000000     0          
C902     C      0.141130000000     0.750000000000     0.358870000000     0          
C903     C      0.062800000000     0.750000000000     0.437200000000     0          
C904     C      0.168580000000     0.750000000000     0.331420000000     0          
C905     C      0.909640000000     0.250000000000     0.409640000000     0          
C906     C      0.858870000000     0.250000000000     0.358870000000     0          
C907     C      0.937200000000     0.250000000000     0.437200000000     0          
C908     C      0.831420000000     0.250000000000     0.331420000000     0          
C909     C      0.909640000000     0.750000000000     0.590360000000     0          
C910     C      0.858870000000     0.750000000000     0.641130000000     0          
C911     C      0.937200000000     0.750000000000     0.562800000000     0          
C912     C      0.831420000000     0.750000000000     0.668580000000     0          
C913     C      0.590360000000     0.750000000000     0.909640000000     0          
C914     C      0.641130000000     0.750000000000     0.858870000000     0          
C915     C      0.562800000000     0.750000000000     0.937200000000     0          
C916     C      0.668580000000     0.750000000000     0.831420000000     0          
C917     C      0.090360000000     0.250000000000     0.409640000000     0          
C918     C      0.141130000000     0.250000000000     0.358870000000     0          
C919     C      0.062800000000     0.250000000000     0.437200000000     0          
C920     C      0.168580000000     0.250000000000     0.331420000000     0          
C921     C      0.409640000000     0.250000000000     0.909640000000     0          
C922     C      0.358870000000     0.250000000000     0.858870000000     0          
C923     C      0.437200000000     0.250000000000     0.937200000000     0          
C924     C      0.331420000000     0.250000000000     0.831420000000     0          
C925     C      0.409640000000     0.750000000000     0.090360000000     0          
C926     C      0.358870000000     0.750000000000     0.141130000000     0          
C927     C      0.437200000000     0.750000000000     0.062800000000     0          
C928     C      0.331420000000     0.750000000000     0.168580000000     0          
C929     C      0.590360000000     0.250000000000     0.090360000000     0          
C930     C      0.641130000000     0.250000000000     0.141130000000     0          
C931     C      0.562800000000     0.250000000000     0.062800000000     0          
C932     C      0.668580000000     0.250000000000     0.168580000000     0          
C933     C      0.909640000000     0.590360000000     0.750000000000     0          
C934     C      0.858870000000     0.641130000000     0.750000000000     0          
C935     C      0.937200000000     0.562800000000     0.750000000000     0          
C936     C      0.831420000000     0.668580000000     0.750000000000     0          
C937     C      0.409640000000     0.090360000000     0.250000000000     0          
C938     C      0.358870000000     0.141130000000     0.250000000000     0          
C939     C      0.437200000000     0.062800000000     0.250000000000     0          
C940     C      0.331420000000     0.168580000000     0.250000000000     0          
C941     C      0.909640000000     0.409640000000     0.250000000000     0          
C942     C      0.858870000000     0.358870000000     0.250000000000     0          
C943     C      0.937200000000     0.437200000000     0.250000000000     0          
C944     C      0.831420000000     0.331420000000     0.250000000000     0          
C945     C      0.090360000000     0.409640000000     0.750000000000     0          
C946     C      0.141130000000     0.358870000000     0.750000000000     0          
C947     C      0.062800000000     0.437200000000     0.750000000000     0          
C948     C      0.168580000000     0.331420000000     0.750000000000     0          
C949     C      0.090360000000     0.590360000000     0.250000000000     0          
C950     C      0.141130000000     0.641130000000     0.250000000000     0          
C951     C      0.062800000000     0.562800000000     0.250000000000     0          
C952     C      0.168580000000     0.668580000000     0.250000000000     0          
C953     C      0.750000000000     0.909640000000     0.590360000000     0          
C954     C      0.750000000000     0.858870000000     0.641130000000     0          
C955     C      0.750000000000     0.937200000000     0.562800000000     0          
C956     C      0.750000000000     0.831420000000     0.668580000000     0          
C957     C      0.250000000000     0.409640000000     0.090360000000     0          
C958     C      0.250000000000     0.358870000000     0.141130000000     0          
C959     C      0.250000000000     0.437200000000     0.062800000000     0          
C960     C      0.250000000000     0.331420000000     0.168580000000     0          
C961     C      0.250000000000     0.909640000000     0.409640000000     0          
C962     C      0.250000000000     0.858870000000     0.358870000000     0          
C963     C      0.250000000000     0.937200000000     0.437200000000     0          
C964     C      0.250000000000     0.831420000000     0.331420000000     0          
C965     C      0.750000000000     0.090360000000     0.409640000000     0          
C966     C      0.750000000000     0.141130000000     0.358870000000     0          
C967     C      0.750000000000     0.062800000000     0.437200000000     0          
C968     C      0.750000000000     0.168580000000     0.331420000000     0          
C969     C      0.250000000000     0.090360000000     0.590360000000     0          
C970     C      0.250000000000     0.141130000000     0.641130000000     0          
C971     C      0.250000000000     0.062800000000     0.562800000000     0          
C972     C      0.250000000000     0.168580000000     0.668580000000     0          
C973     C      0.750000000000     0.590360000000     0.090360000000     0          
C974     C      0.750000000000     0.641130000000     0.141130000000     0          
C975     C      0.750000000000     0.562800000000     0.062800000000     0          
C976     C      0.750000000000     0.668580000000     0.168580000000     0          
C977     C      0.750000000000     0.409640000000     0.909640000000     0          
C978     C      0.750000000000     0.358870000000     0.858870000000     0          
C979     C      0.750000000000     0.437200000000     0.937200000000     0          
C980     C      0.750000000000     0.331420000000     0.831420000000     0          
C981     C      0.250000000000     0.590360000000     0.909640000000     0          
C982     C      0.250000000000     0.641130000000     0.858870000000     0          
C983     C      0.250000000000     0.562800000000     0.937200000000     0          
C984     C      0.250000000000     0.668580000000     0.831420000000     0          
C985     C      0.590360000000     0.909640000000     0.250000000000     0          
C986     C      0.641130000000     0.858870000000     0.250000000000     0          
C987     C      0.562800000000     0.937200000000     0.250000000000     0          
C988     C      0.668580000000     0.831420000000     0.250000000000     0          
C989     C      0.409640000000     0.909640000000     0.750000000000     0          
C990     C      0.358870000000     0.858870000000     0.750000000000     0          
C991     C      0.437200000000     0.937200000000     0.750000000000     0          
C992     C      0.331420000000     0.831420000000     0.750000000000     0          
C993     C      0.590360000000     0.090360000000     0.750000000000     0          
C994     C      0.641130000000     0.141130000000     0.750000000000     0          
C995     C      0.562800000000     0.062800000000     0.750000000000     0          
C996     C      0.668580000000     0.168580000000     0.750000000000     0          
C997     C      0.909640000000     0.750000000000     0.409640000000     0          
C998     C      0.858870000000     0.750000000000     0.358870000000     0          
C999     C      0.937200000000     0.750000000000     0.437200000000     0          
C1000    C      0.831420000000     0.750000000000     0.331420000000     0          
C1001    C      0.909640000000     0.250000000000     0.590360000000     0          
C1002    C      0.858870000000     0.250000000000     0.641130000000     0          
C1003    C      0.937200000000     0.250000000000     0.562800000000     0          
C1004    C      0.831420000000     0.250000000000     0.668580000000     0          
C1005    C      0.090360000000     0.750000000000     0.590360000000     0          
C1006    C      0.141130000000     0.750000000000     0.641130000000     0          
C1007    C      0.062800000000     0.750000000000     0.562800000000     0          
C1008    C      0.168580000000     0.750000000000     0.668580000000     0          
O1010    O      0.500000000000     0.309900000000     0.000000000000     0          
Fe1011   Fe     0.000000000000     0.749580000000     0.500000000000     0          
O1014    O      0.500000000000     0.690100000000     0.000000000000     0          
Fe1015   Fe     0.000000000000     0.250420000000     0.500000000000     0          
O1018    O      0.000000000000     0.500000000000     0.309900000000     0          
Fe1019   Fe     0.500000000000     0.000000000000     0.749580000000     0          
O1022    O      0.000000000000     0.500000000000     0.690100000000     0          
Fe1023   Fe     0.500000000000     0.000000000000     0.250420000000     0          
O1026    O      0.309900000000     0.000000000000     0.500000000000     0          
Fe1027   Fe     0.749580000000     0.500000000000     0.000000000000     0          
O1030    O      0.690100000000     0.000000000000     0.500000000000     0          
Fe1031   Fe     0.250420000000     0.500000000000     0.000000000000     0          
O1034    O      0.309900000000     0.500000000000     0.000000000000     0          
Fe1035   Fe     0.749580000000     0.000000000000     0.500000000000     0          
O1038    O      0.690100000000     0.500000000000     0.000000000000     0          
Fe1039   Fe     0.250420000000     0.000000000000     0.500000000000     0          
O1042    O      0.500000000000     0.000000000000     0.690100000000     0          
Fe1043   Fe     0.000000000000     0.500000000000     0.250420000000     0          
O1046    O      0.500000000000     0.000000000000     0.309900000000     0          
Fe1047   Fe     0.000000000000     0.500000000000     0.749580000000     0          
O1050    O      0.000000000000     0.309900000000     0.500000000000     0          
Fe1051   Fe     0.500000000000     0.749580000000     0.000000000000     0          
O1054    O      0.000000000000     0.690100000000     0.500000000000     0          
Fe1055   Fe     0.500000000000     0.250420000000     0.000000000000     0          
O1057    O      0.526000000000     0.324000000000     0.000000000000     0          
O1058    O      0.474000000000     0.676000000000     0.000000000000     0          
O1062    O      0.000000000000     0.474000000000     0.324000000000     0          
O1064    O      0.000000000000     0.526000000000     0.676000000000     0          
O1065    O      0.324000000000     0.000000000000     0.526000000000     0          
O1066    O      0.676000000000     0.000000000000     0.474000000000     0          
O1069    O      0.324000000000     0.526000000000     0.000000000000     0          
O1071    O      0.676000000000     0.474000000000     0.000000000000     0          
O1075    O      0.474000000000     0.000000000000     0.676000000000     0          
O1076    O      0.526000000000     0.000000000000     0.324000000000     0          
O1077    O      0.000000000000     0.324000000000     0.474000000000     0          
O1079    O      0.000000000000     0.676000000000     0.526000000000     0          
H1081    H      0.849810000000     0.695520000000     0.627730000000     0          
H1082    H      0.150190000000     0.304480000000     0.627730000000     0          
H1083    H      0.150190000000     0.695520000000     0.372270000000     0          
H1084    H      0.849810000000     0.304480000000     0.372270000000     0          
H1085    H      0.627730000000     0.849810000000     0.695520000000     0          
H1086    H      0.627730000000     0.150190000000     0.304480000000     0          
H1087    H      0.372270000000     0.150190000000     0.695520000000     0          
H1088    H      0.372270000000     0.849810000000     0.304480000000     0          
H1089    H      0.695520000000     0.627730000000     0.849810000000     0          
H1090    H      0.695520000000     0.372270000000     0.150190000000     0          
H1091    H      0.304480000000     0.372270000000     0.849810000000     0          
H1092    H      0.695520000000     0.849810000000     0.372270000000     0          
H1093    H      0.304480000000     0.150190000000     0.372270000000     0          
H1094    H      0.695520000000     0.150190000000     0.627730000000     0          
H1095    H      0.304480000000     0.849810000000     0.627730000000     0          
H1096    H      0.849810000000     0.627730000000     0.304480000000     0          
H1097    H      0.150190000000     0.627730000000     0.695520000000     0          
H1098    H      0.150190000000     0.372270000000     0.304480000000     0          
H1099    H      0.849810000000     0.372270000000     0.695520000000     0          
H1100    H      0.627730000000     0.695520000000     0.150190000000     0          
H1101    H      0.627730000000     0.304480000000     0.849810000000     0          
H1102    H      0.372270000000     0.695520000000     0.849810000000     0          
H1103    H      0.372270000000     0.304480000000     0.150190000000     0          
H1104    H      0.150190000000     0.304480000000     0.372270000000     0          
H1105    H      0.849810000000     0.695520000000     0.372270000000     0          
H1106    H      0.849810000000     0.304480000000     0.627730000000     0          
H1107    H      0.150190000000     0.695520000000     0.627730000000     0          
H1108    H      0.372270000000     0.150190000000     0.304480000000     0          
H1109    H      0.372270000000     0.849810000000     0.695520000000     0          
H1110    H      0.627730000000     0.849810000000     0.304480000000     0          
H1111    H      0.627730000000     0.150190000000     0.695520000000     0          
H1112    H      0.304480000000     0.372270000000     0.150190000000     0          
H1113    H      0.695520000000     0.372270000000     0.849810000000     0          
H1114    H      0.304480000000     0.627730000000     0.849810000000     0          
H1115    H      0.695520000000     0.627730000000     0.150190000000     0          
H1116    H      0.304480000000     0.150190000000     0.627730000000     0          
H1117    H      0.695520000000     0.849810000000     0.627730000000     0          
H1118    H      0.304480000000     0.849810000000     0.372270000000     0          
H1119    H      0.695520000000     0.150190000000     0.372270000000     0          
H1120    H      0.150190000000     0.372270000000     0.695520000000     0          
H1121    H      0.849810000000     0.372270000000     0.304480000000     0          
H1122    H      0.849810000000     0.627730000000     0.695520000000     0          
H1123    H      0.150190000000     0.627730000000     0.304480000000     0          
H1124    H      0.372270000000     0.304480000000     0.849810000000     0          
H1125    H      0.372270000000     0.695520000000     0.150190000000     0          
H1126    H      0.627730000000     0.304480000000     0.150190000000     0          
H1127    H      0.627730000000     0.695520000000     0.849810000000     0          
H1128    H      0.207810000000     0.801770000000     0.801770000000     0          
H1129    H      0.246100000000     0.782620000000     0.782620000000     0          
H1130    H      0.273050000000     0.736530000000     0.736530000000     0          
H1131    H      0.311340000000     0.717380000000     0.717380000000     0          
H1133    H      0.195520000000     0.650190000000     0.127730000000     0          
H1134    H      0.304480000000     0.627730000000     0.150190000000     0          
H1135    H      0.299880000000     0.603260000000     0.088540000000     0          
H1136    H      0.195520000000     0.872270000000     0.650190000000     0          
H1137    H      0.804480000000     0.650190000000     0.872270000000     0          
H1138    H      0.349810000000     0.804480000000     0.872270000000     0          
H1139    H      0.349810000000     0.804480000000     0.127730000000     0          
H1140    H      0.650190000000     0.804480000000     0.872270000000     0          
H1141    H      0.650190000000     0.804480000000     0.127730000000     0          
H1142    H      0.650190000000     0.872270000000     0.195520000000     0          
H1143    H      0.349810000000     0.872270000000     0.195520000000     0          
H1144    H      0.195520000000     0.650190000000     0.872270000000     0          
H1145    H      0.195520000000     0.349810000000     0.872270000000     0          
H1146    H      0.349810000000     0.127730000000     0.804480000000     0          
H1147    H      0.349810000000     0.872270000000     0.804480000000     0          
H1148    H      0.650190000000     0.127730000000     0.195520000000     0          
H1149    H      0.872270000000     0.349810000000     0.195520000000     0          
H1150    H      0.872270000000     0.804480000000     0.349810000000     0          
H1151    H      0.195520000000     0.872270000000     0.349810000000     0          
H1152    H      0.804480000000     0.872270000000     0.650190000000     0          
H1153    H      0.650190000000     0.195520000000     0.872270000000     0          
H1154    H      0.804480000000     0.127730000000     0.650190000000     0          
H1155    H      0.349810000000     0.195520000000     0.872270000000     0          
H1156    H      0.804480000000     0.349810000000     0.872270000000     0          
H1157    H      0.872270000000     0.195520000000     0.650190000000     0          
H1158    H      0.127730000000     0.195520000000     0.650190000000     0          
H1159    H      0.195520000000     0.127730000000     0.650190000000     0          
H1160    H      0.127730000000     0.349810000000     0.804480000000     0          
H1161    H      0.349810000000     0.195520000000     0.127730000000     0          
H1162    H      0.650190000000     0.195520000000     0.127730000000     0          
H1163    H      0.127730000000     0.650190000000     0.804480000000     0          
H1164    H      0.195520000000     0.127730000000     0.349810000000     0          
H1165    H      0.872270000000     0.650190000000     0.804480000000     0          
H1166    H      0.872270000000     0.349810000000     0.804480000000     0          
H1167    H      0.127730000000     0.349810000000     0.195520000000     0          
H1168    H      0.127730000000     0.195520000000     0.349810000000     0          
H1169    H      0.872270000000     0.650190000000     0.195520000000     0          
H1170    H      0.127730000000     0.650190000000     0.195520000000     0          
H1171    H      0.804480000000     0.650190000000     0.127730000000     0          
H1172    H      0.804480000000     0.872270000000     0.349810000000     0          
H1173    H      0.127730000000     0.804480000000     0.650190000000     0          
H1174    H      0.127730000000     0.804480000000     0.349810000000     0          
H1175    H      0.872270000000     0.804480000000     0.650190000000     0          
H1176    H      0.804480000000     0.127730000000     0.349810000000     0          
H1177    H      0.804480000000     0.349810000000     0.127730000000     0          
H1178    H      0.349810000000     0.127730000000     0.195520000000     0          
H1179    H      0.650190000000     0.127730000000     0.804480000000     0          
H1180    H      0.195520000000     0.349810000000     0.127730000000     0          
H1181    H      0.873100000000     0.199700000000     0.352300000000     0          
H1182    H      0.647700000000     0.873100000000     0.800300000000     0          


