data_OFAVUO

_audit_creation_method RASPA-1.0
_audit_creation_date 2020-12-11
_audit_author_name 'Rocio Bueno-Perez'

_cell_length_a    23.91
_cell_length_b    23.91
_cell_length_c    23.91
_cell_angle_alpha 90
_cell_angle_beta  90
_cell_angle_gamma 90
_cell_volume      13669.1

_symmetry_cell_setting          triclinic
_symmetry_space_group_name_Hall 'P 1'
_symmetry_space_group_name_H-M  'P 1'
_symmetry_Int_Tables_number     1

_symmetry_equiv_pos_as_xyz 'x,y,z'

loop_
_atom_site_label
_atom_site_type_symbol
_atom_site_fract_x
_atom_site_fract_y
_atom_site_fract_z
_atom_site_charge
Zr1      Zr     0.000000000000     0.000000000000     0.103470000000     0          
Zr2      Zr     0.000000000000     0.500000000000     0.603470000000     0          
Zr3      Zr     0.500000000000     0.000000000000     0.603470000000     0          
Zr4      Zr     0.500000000000     0.500000000000     0.103470000000     0          
Zr5      Zr     0.000000000000     0.000000000000     0.896530000000     0          
Zr6      Zr     0.000000000000     0.500000000000     0.396530000000     0          
Zr7      Zr     0.500000000000     0.000000000000     0.396530000000     0          
Zr8      Zr     0.500000000000     0.500000000000     0.896530000000     0          
Zr9      Zr     0.103470000000     0.000000000000     0.000000000000     0          
Zr10     Zr     0.103470000000     0.500000000000     0.500000000000     0          
Zr11     Zr     0.603470000000     0.000000000000     0.500000000000     0          
Zr12     Zr     0.603470000000     0.500000000000     0.000000000000     0          
Zr13     Zr     0.896530000000     0.000000000000     0.000000000000     0          
Zr14     Zr     0.896530000000     0.500000000000     0.500000000000     0          
Zr15     Zr     0.396530000000     0.000000000000     0.500000000000     0          
Zr16     Zr     0.396530000000     0.500000000000     0.000000000000     0          
Zr17     Zr     0.000000000000     0.103470000000     0.000000000000     0          
Zr18     Zr     0.000000000000     0.603470000000     0.500000000000     0          
Zr19     Zr     0.500000000000     0.103470000000     0.500000000000     0          
Zr20     Zr     0.500000000000     0.603470000000     0.000000000000     0          
Zr21     Zr     0.000000000000     0.896530000000     0.000000000000     0          
Zr22     Zr     0.000000000000     0.396530000000     0.500000000000     0          
Zr23     Zr     0.500000000000     0.896530000000     0.500000000000     0          
Zr24     Zr     0.500000000000     0.396530000000     0.000000000000     0          
O25      O      0.050900000000     0.050900000000     0.050900000000     0          
O26      O      0.050900000000     0.550900000000     0.550900000000     0          
O27      O      0.550900000000     0.050900000000     0.550900000000     0          
O28      O      0.550900000000     0.550900000000     0.050900000000     0          
O29      O      0.949100000000     0.949100000000     0.050900000000     0          
O30      O      0.949100000000     0.449100000000     0.550900000000     0          
O31      O      0.449100000000     0.949100000000     0.550900000000     0          
O32      O      0.449100000000     0.449100000000     0.050900000000     0          
O33      O      0.949100000000     0.050900000000     0.949100000000     0          
O34      O      0.949100000000     0.550900000000     0.449100000000     0          
O35      O      0.449100000000     0.050900000000     0.449100000000     0          
O36      O      0.449100000000     0.550900000000     0.949100000000     0          
O37      O      0.050900000000     0.949100000000     0.949100000000     0          
O38      O      0.050900000000     0.449100000000     0.449100000000     0          
O39      O      0.550900000000     0.949100000000     0.449100000000     0          
O40      O      0.550900000000     0.449100000000     0.949100000000     0          
O41      O      0.050900000000     0.050900000000     0.949100000000     0          
O42      O      0.050900000000     0.550900000000     0.449100000000     0          
O43      O      0.550900000000     0.050900000000     0.449100000000     0          
O44      O      0.550900000000     0.550900000000     0.949100000000     0          
O45      O      0.949100000000     0.949100000000     0.949100000000     0          
O46      O      0.949100000000     0.449100000000     0.449100000000     0          
O47      O      0.449100000000     0.949100000000     0.449100000000     0          
O48      O      0.449100000000     0.449100000000     0.949100000000     0          
O49      O      0.050900000000     0.949100000000     0.050900000000     0          
O50      O      0.050900000000     0.449100000000     0.550900000000     0          
O51      O      0.550900000000     0.949100000000     0.550900000000     0          
O52      O      0.550900000000     0.449100000000     0.050900000000     0          
O53      O      0.949100000000     0.050900000000     0.050900000000     0          
O54      O      0.949100000000     0.550900000000     0.550900000000     0          
O55      O      0.449100000000     0.050900000000     0.550900000000     0          
O56      O      0.449100000000     0.550900000000     0.050900000000     0          
O57      O      0.000000000000     0.080500000000     0.149600000000     0          
O58      O      0.000000000000     0.580500000000     0.649600000000     0          
C59      C      0.000000000000     0.667900000000     0.684700000000     0          
C60      C      0.000000000000     0.724300000000     0.677400000000     0          
C61      C      0.000000000000     0.647500000000     0.737100000000     0          
C62      C      0.000000000000     0.680400000000     0.784400000000     0          
C63      C      0.000000000000     0.739800000000     0.776600000000     0          
H64      H      0.000000000000     0.600370000000     0.744340000000     0          
H65      H      0.000000000000     0.660120000000     0.827550000000     0          
O66      O      0.500000000000     0.080500000000     0.649600000000     0          
O67      O      0.500000000000     0.580500000000     0.149600000000     0          
O68      O      0.000000000000     0.919500000000     0.149600000000     0          
C69      C      0.000000000000     0.832100000000     0.184700000000     0          
C70      C      0.000000000000     0.775700000000     0.177400000000     0          
C71      C      0.000000000000     0.852500000000     0.237100000000     0          
C72      C      0.000000000000     0.819600000000     0.284400000000     0          
C73      C      0.000000000000     0.760200000000     0.276600000000     0          
H74      H      0.000000000000     0.899630000000     0.244340000000     0          
H75      H      0.000000000000     0.839880000000     0.327550000000     0          
O76      O      0.000000000000     0.419500000000     0.649600000000     0          
C77      C      0.000000000000     0.332100000000     0.684700000000     0          
C78      C      0.000000000000     0.275700000000     0.677400000000     0          
C79      C      0.000000000000     0.352500000000     0.737100000000     0          
C80      C      0.000000000000     0.319600000000     0.784400000000     0          
C81      C      0.000000000000     0.260200000000     0.776600000000     0          
H82      H      0.000000000000     0.399630000000     0.744340000000     0          
H83      H      0.000000000000     0.339880000000     0.827550000000     0          
O84      O      0.500000000000     0.919500000000     0.649600000000     0          
O85      O      0.500000000000     0.419500000000     0.149600000000     0          
O86      O      0.000000000000     0.080500000000     0.850400000000     0          
C87      C      0.000000000000     0.167900000000     0.815300000000     0          
C88      C      0.000000000000     0.224300000000     0.822600000000     0          
C89      C      0.000000000000     0.147500000000     0.762900000000     0          
C90      C      0.000000000000     0.180400000000     0.715600000000     0          
C91      C      0.000000000000     0.239800000000     0.723400000000     0          
H92      H      0.000000000000     0.100370000000     0.755660000000     0          
H93      H      0.000000000000     0.160120000000     0.672450000000     0          
O94      O      0.000000000000     0.580500000000     0.350400000000     0          
C95      C      0.000000000000     0.667900000000     0.315300000000     0          
C96      C      0.000000000000     0.724300000000     0.322600000000     0          
C97      C      0.000000000000     0.647500000000     0.262900000000     0          
C98      C      0.000000000000     0.680400000000     0.215600000000     0          
C99      C      0.000000000000     0.739800000000     0.223400000000     0          
H100     H      0.000000000000     0.600370000000     0.255660000000     0          
H101     H      0.000000000000     0.660120000000     0.172450000000     0          
O102     O      0.500000000000     0.080500000000     0.350400000000     0          
O103     O      0.500000000000     0.580500000000     0.850400000000     0          
O104     O      0.000000000000     0.919500000000     0.850400000000     0          
C105     C      0.000000000000     0.832100000000     0.815300000000     0          
C106     C      0.000000000000     0.775700000000     0.822600000000     0          
C107     C      0.000000000000     0.852500000000     0.762900000000     0          
C108     C      0.000000000000     0.819600000000     0.715600000000     0          
C109     C      0.000000000000     0.760200000000     0.723400000000     0          
H110     H      0.000000000000     0.899630000000     0.755660000000     0          
H111     H      0.000000000000     0.839880000000     0.672450000000     0          
O112     O      0.000000000000     0.419500000000     0.350400000000     0          
O113     O      0.500000000000     0.919500000000     0.350400000000     0          
O114     O      0.500000000000     0.419500000000     0.850400000000     0          
O115     O      0.149600000000     0.000000000000     0.080500000000     0          
O116     O      0.149600000000     0.500000000000     0.580500000000     0          
O117     O      0.649600000000     0.000000000000     0.580500000000     0          
O118     O      0.649600000000     0.500000000000     0.080500000000     0          
O119     O      0.149600000000     0.000000000000     0.919500000000     0          
O120     O      0.149600000000     0.500000000000     0.419500000000     0          
C121     C      0.184700000000     0.500000000000     0.332100000000     0          
C122     C      0.177400000000     0.500000000000     0.275700000000     0          
C123     C      0.237100000000     0.500000000000     0.352500000000     0          
C124     C      0.284400000000     0.500000000000     0.319600000000     0          
C125     C      0.276600000000     0.500000000000     0.260200000000     0          
H126     H      0.244340000000     0.500000000000     0.399630000000     0          
H127     H      0.327550000000     0.500000000000     0.339880000000     0          
O128     O      0.649600000000     0.000000000000     0.419500000000     0          
C129     C      0.684700000000     0.000000000000     0.332100000000     0          
C130     C      0.677400000000     0.000000000000     0.275700000000     0          
C131     C      0.737100000000     0.000000000000     0.352500000000     0          
C132     C      0.784400000000     0.000000000000     0.319600000000     0          
C133     C      0.776600000000     0.000000000000     0.260200000000     0          
H134     H      0.744340000000     0.000000000000     0.399630000000     0          
H135     H      0.827550000000     0.000000000000     0.339880000000     0          
O136     O      0.649600000000     0.500000000000     0.919500000000     0          
C137     C      0.684700000000     0.500000000000     0.832100000000     0          
C138     C      0.677400000000     0.500000000000     0.775700000000     0          
C139     C      0.737100000000     0.500000000000     0.852500000000     0          
C140     C      0.784400000000     0.500000000000     0.819600000000     0          
C141     C      0.776600000000     0.500000000000     0.760200000000     0          
H142     H      0.744340000000     0.500000000000     0.899630000000     0          
H143     H      0.827550000000     0.500000000000     0.839880000000     0          
O144     O      0.850400000000     0.000000000000     0.080500000000     0          
C145     C      0.815300000000     0.000000000000     0.167900000000     0          
C146     C      0.822600000000     0.000000000000     0.224300000000     0          
C147     C      0.762900000000     0.000000000000     0.147500000000     0          
C148     C      0.715600000000     0.000000000000     0.180400000000     0          
C149     C      0.723400000000     0.000000000000     0.239800000000     0          
H150     H      0.755660000000     0.000000000000     0.100370000000     0          
H151     H      0.672450000000     0.000000000000     0.160120000000     0          
O152     O      0.850400000000     0.500000000000     0.580500000000     0          
C153     C      0.815300000000     0.500000000000     0.667900000000     0          
C154     C      0.822600000000     0.500000000000     0.724300000000     0          
C155     C      0.762900000000     0.500000000000     0.647500000000     0          
C156     C      0.715600000000     0.500000000000     0.680400000000     0          
C157     C      0.723400000000     0.500000000000     0.739800000000     0          
H158     H      0.755660000000     0.500000000000     0.600370000000     0          
H159     H      0.672450000000     0.500000000000     0.660120000000     0          
O160     O      0.350400000000     0.000000000000     0.580500000000     0          
O161     O      0.350400000000     0.500000000000     0.080500000000     0          
C162     C      0.315300000000     0.500000000000     0.167900000000     0          
C163     C      0.322600000000     0.500000000000     0.224300000000     0          
C164     C      0.262900000000     0.500000000000     0.147500000000     0          
C165     C      0.215600000000     0.500000000000     0.180400000000     0          
C166     C      0.223400000000     0.500000000000     0.239800000000     0          
H167     H      0.255660000000     0.500000000000     0.100370000000     0          
H168     H      0.172450000000     0.500000000000     0.160120000000     0          
O169     O      0.850400000000     0.000000000000     0.919500000000     0          
O170     O      0.850400000000     0.500000000000     0.419500000000     0          
O171     O      0.350400000000     0.000000000000     0.419500000000     0          
O172     O      0.350400000000     0.500000000000     0.919500000000     0          
O173     O      0.080500000000     0.149600000000     0.000000000000     0          
C174     C      0.167900000000     0.184700000000     0.000000000000     0          
C175     C      0.224300000000     0.177400000000     0.000000000000     0          
C176     C      0.147500000000     0.237100000000     0.000000000000     0          
C177     C      0.180400000000     0.284400000000     0.000000000000     0          
C178     C      0.239800000000     0.276600000000     0.000000000000     0          
H179     H      0.100370000000     0.244340000000     0.000000000000     0          
H180     H      0.160120000000     0.327550000000     0.000000000000     0          
O181     O      0.080500000000     0.649600000000     0.500000000000     0          
C182     C      0.167900000000     0.684700000000     0.500000000000     0          
C183     C      0.224300000000     0.677400000000     0.500000000000     0          
C184     C      0.147500000000     0.737100000000     0.500000000000     0          
C185     C      0.180400000000     0.784400000000     0.500000000000     0          
C186     C      0.239800000000     0.776600000000     0.500000000000     0          
H187     H      0.100370000000     0.744340000000     0.500000000000     0          
H188     H      0.160120000000     0.827550000000     0.500000000000     0          
O189     O      0.580500000000     0.149600000000     0.500000000000     0          
C190     C      0.667900000000     0.184700000000     0.500000000000     0          
C191     C      0.724300000000     0.177400000000     0.500000000000     0          
C192     C      0.647500000000     0.237100000000     0.500000000000     0          
C193     C      0.680400000000     0.284400000000     0.500000000000     0          
C194     C      0.739800000000     0.276600000000     0.500000000000     0          
H195     H      0.600370000000     0.244340000000     0.500000000000     0          
H196     H      0.660120000000     0.327550000000     0.500000000000     0          
O197     O      0.580500000000     0.649600000000     0.000000000000     0          
O198     O      0.919500000000     0.149600000000     0.000000000000     0          
O199     O      0.919500000000     0.649600000000     0.500000000000     0          
O200     O      0.419500000000     0.149600000000     0.500000000000     0          
C201     C      0.332100000000     0.184700000000     0.500000000000     0          
C202     C      0.275700000000     0.177400000000     0.500000000000     0          
C203     C      0.352500000000     0.237100000000     0.500000000000     0          
C204     C      0.319600000000     0.284400000000     0.500000000000     0          
C205     C      0.260200000000     0.276600000000     0.500000000000     0          
H206     H      0.399630000000     0.244340000000     0.500000000000     0          
H207     H      0.339880000000     0.327550000000     0.500000000000     0          
O208     O      0.419500000000     0.649600000000     0.000000000000     0          
O209     O      0.080500000000     0.850400000000     0.000000000000     0          
O210     O      0.080500000000     0.350400000000     0.500000000000     0          
C211     C      0.167900000000     0.315300000000     0.500000000000     0          
C212     C      0.224300000000     0.322600000000     0.500000000000     0          
C213     C      0.147500000000     0.262900000000     0.500000000000     0          
C214     C      0.180400000000     0.215600000000     0.500000000000     0          
C215     C      0.239800000000     0.223400000000     0.500000000000     0          
H216     H      0.100370000000     0.255660000000     0.500000000000     0          
H217     H      0.160120000000     0.172450000000     0.500000000000     0          
O218     O      0.580500000000     0.850400000000     0.500000000000     0          
O219     O      0.580500000000     0.350400000000     0.000000000000     0          
O220     O      0.919500000000     0.850400000000     0.000000000000     0          
O221     O      0.919500000000     0.350400000000     0.500000000000     0          
C222     C      0.832100000000     0.315300000000     0.500000000000     0          
C223     C      0.775700000000     0.322600000000     0.500000000000     0          
C224     C      0.852500000000     0.262900000000     0.500000000000     0          
C225     C      0.819600000000     0.215600000000     0.500000000000     0          
C226     C      0.760200000000     0.223400000000     0.500000000000     0          
H227     H      0.899630000000     0.255660000000     0.500000000000     0          
H228     H      0.839880000000     0.172450000000     0.500000000000     0          
O229     O      0.419500000000     0.850400000000     0.500000000000     0          
C230     C      0.332100000000     0.815300000000     0.500000000000     0          
C231     C      0.275700000000     0.822600000000     0.500000000000     0          
C232     C      0.352500000000     0.762900000000     0.500000000000     0          
C233     C      0.319600000000     0.715600000000     0.500000000000     0          
C234     C      0.260200000000     0.723400000000     0.500000000000     0          
H235     H      0.399630000000     0.755660000000     0.500000000000     0          
H236     H      0.339880000000     0.672450000000     0.500000000000     0          
O237     O      0.419500000000     0.350400000000     0.000000000000     0          
C238     C      0.332100000000     0.315300000000     0.000000000000     0          
C239     C      0.275700000000     0.322600000000     0.000000000000     0          
C240     C      0.352500000000     0.262900000000     0.000000000000     0          
C241     C      0.319600000000     0.215600000000     0.000000000000     0          
C242     C      0.260200000000     0.223400000000     0.000000000000     0          
H243     H      0.399630000000     0.255660000000     0.000000000000     0          
H244     H      0.339880000000     0.172450000000     0.000000000000     0          
O245     O      0.080500000000     0.000000000000     0.850400000000     0          
C246     C      0.167900000000     0.000000000000     0.815300000000     0          
C247     C      0.224300000000     0.000000000000     0.822600000000     0          
C248     C      0.147500000000     0.000000000000     0.762900000000     0          
C249     C      0.180400000000     0.000000000000     0.715600000000     0          
C250     C      0.239800000000     0.000000000000     0.723400000000     0          
H251     H      0.100370000000     0.000000000000     0.755660000000     0          
H252     H      0.160120000000     0.000000000000     0.672450000000     0          
O253     O      0.080500000000     0.500000000000     0.350400000000     0          
O254     O      0.580500000000     0.000000000000     0.350400000000     0          
O255     O      0.580500000000     0.500000000000     0.850400000000     0          
O256     O      0.919500000000     0.000000000000     0.850400000000     0          
C257     C      0.832100000000     0.000000000000     0.815300000000     0          
C258     C      0.775700000000     0.000000000000     0.822600000000     0          
C259     C      0.852500000000     0.000000000000     0.762900000000     0          
C260     C      0.819600000000     0.000000000000     0.715600000000     0          
C261     C      0.760200000000     0.000000000000     0.723400000000     0          
H262     H      0.899630000000     0.000000000000     0.755660000000     0          
H263     H      0.839880000000     0.000000000000     0.672450000000     0          
O264     O      0.919500000000     0.500000000000     0.350400000000     0          
C265     C      0.832100000000     0.500000000000     0.315300000000     0          
C266     C      0.775700000000     0.500000000000     0.322600000000     0          
C267     C      0.852500000000     0.500000000000     0.262900000000     0          
C268     C      0.819600000000     0.500000000000     0.215600000000     0          
C269     C      0.760200000000     0.500000000000     0.223400000000     0          
H270     H      0.899630000000     0.500000000000     0.255660000000     0          
H271     H      0.839880000000     0.500000000000     0.172450000000     0          
O272     O      0.419500000000     0.000000000000     0.350400000000     0          
C273     C      0.332100000000     0.000000000000     0.315300000000     0          
C274     C      0.275700000000     0.000000000000     0.322600000000     0          
C275     C      0.352500000000     0.000000000000     0.262900000000     0          
C276     C      0.319600000000     0.000000000000     0.215600000000     0          
C277     C      0.260200000000     0.000000000000     0.223400000000     0          
H278     H      0.399630000000     0.000000000000     0.255660000000     0          
H279     H      0.339880000000     0.000000000000     0.172450000000     0          
O280     O      0.419500000000     0.500000000000     0.850400000000     0          
C281     C      0.332100000000     0.500000000000     0.815300000000     0          
C282     C      0.275700000000     0.500000000000     0.822600000000     0          
C283     C      0.352500000000     0.500000000000     0.762900000000     0          
C284     C      0.319600000000     0.500000000000     0.715600000000     0          
C285     C      0.260200000000     0.500000000000     0.723400000000     0          
H286     H      0.399630000000     0.500000000000     0.755660000000     0          
H287     H      0.339880000000     0.500000000000     0.672450000000     0          
O288     O      0.080500000000     0.000000000000     0.149600000000     0          
C289     C      0.167900000000     0.000000000000     0.184700000000     0          
C290     C      0.224300000000     0.000000000000     0.177400000000     0          
C291     C      0.147500000000     0.000000000000     0.237100000000     0          
C292     C      0.180400000000     0.000000000000     0.284400000000     0          
C293     C      0.239800000000     0.000000000000     0.276600000000     0          
H294     H      0.100370000000     0.000000000000     0.244340000000     0          
H295     H      0.160120000000     0.000000000000     0.327550000000     0          
O296     O      0.080500000000     0.500000000000     0.649600000000     0          
C297     C      0.167900000000     0.500000000000     0.684700000000     0          
C298     C      0.224300000000     0.500000000000     0.677400000000     0          
C299     C      0.147500000000     0.500000000000     0.737100000000     0          
C300     C      0.180400000000     0.500000000000     0.784400000000     0          
C301     C      0.239800000000     0.500000000000     0.776600000000     0          
H302     H      0.100370000000     0.500000000000     0.744340000000     0          
H303     H      0.160120000000     0.500000000000     0.827550000000     0          
O304     O      0.580500000000     0.000000000000     0.649600000000     0          
C305     C      0.667900000000     0.000000000000     0.684700000000     0          
C306     C      0.724300000000     0.000000000000     0.677400000000     0          
C307     C      0.647500000000     0.000000000000     0.737100000000     0          
C308     C      0.680400000000     0.000000000000     0.784400000000     0          
C309     C      0.739800000000     0.000000000000     0.776600000000     0          
H310     H      0.600370000000     0.000000000000     0.744340000000     0          
H311     H      0.660120000000     0.000000000000     0.827550000000     0          
O312     O      0.580500000000     0.500000000000     0.149600000000     0          
C313     C      0.667900000000     0.500000000000     0.184700000000     0          
C314     C      0.724300000000     0.500000000000     0.177400000000     0          
C315     C      0.647500000000     0.500000000000     0.237100000000     0          
C316     C      0.680400000000     0.500000000000     0.284400000000     0          
C317     C      0.739800000000     0.500000000000     0.276600000000     0          
H318     H      0.600370000000     0.500000000000     0.244340000000     0          
H319     H      0.660120000000     0.500000000000     0.327550000000     0          
O320     O      0.919500000000     0.000000000000     0.149600000000     0          
O321     O      0.919500000000     0.500000000000     0.649600000000     0          
O322     O      0.419500000000     0.000000000000     0.649600000000     0          
C323     C      0.332100000000     0.000000000000     0.684700000000     0          
C324     C      0.275700000000     0.000000000000     0.677400000000     0          
C325     C      0.352500000000     0.000000000000     0.737100000000     0          
C326     C      0.319600000000     0.000000000000     0.784400000000     0          
C327     C      0.260200000000     0.000000000000     0.776600000000     0          
H328     H      0.399630000000     0.000000000000     0.744340000000     0          
H329     H      0.339880000000     0.000000000000     0.827550000000     0          
O330     O      0.419500000000     0.500000000000     0.149600000000     0          
O331     O      0.000000000000     0.149600000000     0.919500000000     0          
O332     O      0.000000000000     0.649600000000     0.419500000000     0          
O333     O      0.500000000000     0.149600000000     0.419500000000     0          
C334     C      0.500000000000     0.184700000000     0.332100000000     0          
C335     C      0.500000000000     0.177400000000     0.275700000000     0          
C336     C      0.500000000000     0.237100000000     0.352500000000     0          
C337     C      0.500000000000     0.284400000000     0.319600000000     0          
C338     C      0.500000000000     0.276600000000     0.260200000000     0          
H339     H      0.500000000000     0.244340000000     0.399630000000     0          
H340     H      0.500000000000     0.327550000000     0.339880000000     0          
O341     O      0.500000000000     0.649600000000     0.919500000000     0          
C342     C      0.500000000000     0.684700000000     0.832100000000     0          
C343     C      0.500000000000     0.677400000000     0.775700000000     0          
C344     C      0.500000000000     0.737100000000     0.852500000000     0          
C345     C      0.500000000000     0.784400000000     0.819600000000     0          
C346     C      0.500000000000     0.776600000000     0.760200000000     0          
H347     H      0.500000000000     0.744340000000     0.899630000000     0          
H348     H      0.500000000000     0.827550000000     0.839880000000     0          
O349     O      0.000000000000     0.149600000000     0.080500000000     0          
C350     C      0.000000000000     0.184700000000     0.167900000000     0          
C351     C      0.000000000000     0.177400000000     0.224300000000     0          
C352     C      0.000000000000     0.237100000000     0.147500000000     0          
C353     C      0.000000000000     0.284400000000     0.180400000000     0          
C354     C      0.000000000000     0.276600000000     0.239800000000     0          
H355     H      0.000000000000     0.244340000000     0.100370000000     0          
H356     H      0.000000000000     0.327550000000     0.160120000000     0          
O357     O      0.000000000000     0.649600000000     0.580500000000     0          
O358     O      0.500000000000     0.149600000000     0.580500000000     0          
C359     C      0.500000000000     0.184700000000     0.667900000000     0          
C360     C      0.500000000000     0.177400000000     0.724300000000     0          
C361     C      0.500000000000     0.237100000000     0.647500000000     0          
C362     C      0.500000000000     0.284400000000     0.680400000000     0          
C363     C      0.500000000000     0.276600000000     0.739800000000     0          
H364     H      0.500000000000     0.244340000000     0.600370000000     0          
H365     H      0.500000000000     0.327550000000     0.660120000000     0          
O366     O      0.500000000000     0.649600000000     0.080500000000     0          
C367     C      0.500000000000     0.684700000000     0.167900000000     0          
C368     C      0.500000000000     0.677400000000     0.224300000000     0          
C369     C      0.500000000000     0.737100000000     0.147500000000     0          
C370     C      0.500000000000     0.784400000000     0.180400000000     0          
C371     C      0.500000000000     0.776600000000     0.239800000000     0          
H372     H      0.500000000000     0.744340000000     0.100370000000     0          
H373     H      0.500000000000     0.827550000000     0.160120000000     0          
O374     O      0.000000000000     0.850400000000     0.919500000000     0          
O375     O      0.000000000000     0.350400000000     0.419500000000     0          
C376     C      0.000000000000     0.315300000000     0.332100000000     0          
C377     C      0.000000000000     0.322600000000     0.275700000000     0          
C378     C      0.000000000000     0.262900000000     0.352500000000     0          
C379     C      0.000000000000     0.215600000000     0.319600000000     0          
C380     C      0.000000000000     0.223400000000     0.260200000000     0          
H381     H      0.000000000000     0.255660000000     0.399630000000     0          
H382     H      0.000000000000     0.172450000000     0.339880000000     0          
O383     O      0.500000000000     0.850400000000     0.419500000000     0          
C384     C      0.500000000000     0.815300000000     0.332100000000     0          
C385     C      0.500000000000     0.822600000000     0.275700000000     0          
C386     C      0.500000000000     0.762900000000     0.352500000000     0          
C387     C      0.500000000000     0.715600000000     0.319600000000     0          
C388     C      0.500000000000     0.723400000000     0.260200000000     0          
H389     H      0.500000000000     0.755660000000     0.399630000000     0          
H390     H      0.500000000000     0.672450000000     0.339880000000     0          
O391     O      0.500000000000     0.350400000000     0.919500000000     0          
C392     C      0.500000000000     0.315300000000     0.832100000000     0          
C393     C      0.500000000000     0.322600000000     0.775700000000     0          
C394     C      0.500000000000     0.262900000000     0.852500000000     0          
C395     C      0.500000000000     0.215600000000     0.819600000000     0          
C396     C      0.500000000000     0.223400000000     0.760200000000     0          
H397     H      0.500000000000     0.255660000000     0.899630000000     0          
H398     H      0.500000000000     0.172450000000     0.839880000000     0          
O399     O      0.000000000000     0.850400000000     0.080500000000     0          
O400     O      0.000000000000     0.350400000000     0.580500000000     0          
O401     O      0.500000000000     0.850400000000     0.580500000000     0          
C402     C      0.500000000000     0.815300000000     0.667900000000     0          
C403     C      0.500000000000     0.822600000000     0.724300000000     0          
C404     C      0.500000000000     0.762900000000     0.647500000000     0          
C405     C      0.500000000000     0.715600000000     0.680400000000     0          
C406     C      0.500000000000     0.723400000000     0.739800000000     0          
H407     H      0.500000000000     0.755660000000     0.600370000000     0          
H408     H      0.500000000000     0.672450000000     0.660120000000     0          
O409     O      0.500000000000     0.350400000000     0.080500000000     0          
C410     C      0.500000000000     0.315300000000     0.167900000000     0          
C411     C      0.500000000000     0.322600000000     0.224300000000     0          
C412     C      0.500000000000     0.262900000000     0.147500000000     0          
C413     C      0.500000000000     0.215600000000     0.180400000000     0          
C414     C      0.500000000000     0.223400000000     0.239800000000     0          
H415     H      0.500000000000     0.255660000000     0.100370000000     0          
H416     H      0.500000000000     0.172450000000     0.160120000000     0          
O417     O      0.149600000000     0.080500000000     0.000000000000     0          
O418     O      0.149600000000     0.580500000000     0.500000000000     0          
O419     O      0.649600000000     0.080500000000     0.500000000000     0          
O420     O      0.649600000000     0.580500000000     0.000000000000     0          
C421     C      0.684700000000     0.667900000000     0.000000000000     0          
C422     C      0.677400000000     0.724300000000     0.000000000000     0          
C423     C      0.737100000000     0.647500000000     0.000000000000     0          
C424     C      0.784400000000     0.680400000000     0.000000000000     0          
C425     C      0.776600000000     0.739800000000     0.000000000000     0          
H426     H      0.744340000000     0.600370000000     0.000000000000     0          
H427     H      0.827550000000     0.660120000000     0.000000000000     0          
O428     O      0.149600000000     0.919500000000     0.000000000000     0          
C429     C      0.184700000000     0.832100000000     0.000000000000     0          
C430     C      0.177400000000     0.775700000000     0.000000000000     0          
C431     C      0.237100000000     0.852500000000     0.000000000000     0          
C432     C      0.284400000000     0.819600000000     0.000000000000     0          
C433     C      0.276600000000     0.760200000000     0.000000000000     0          
H434     H      0.244340000000     0.899630000000     0.000000000000     0          
H435     H      0.327550000000     0.839880000000     0.000000000000     0          
O436     O      0.149600000000     0.419500000000     0.500000000000     0          
O437     O      0.649600000000     0.919500000000     0.500000000000     0          
C438     C      0.684700000000     0.832100000000     0.500000000000     0          
C439     C      0.677400000000     0.775700000000     0.500000000000     0          
C440     C      0.737100000000     0.852500000000     0.500000000000     0          
C441     C      0.784400000000     0.819600000000     0.500000000000     0          
C442     C      0.776600000000     0.760200000000     0.500000000000     0          
H443     H      0.744340000000     0.899630000000     0.500000000000     0          
H444     H      0.827550000000     0.839880000000     0.500000000000     0          
H445     H      0.633390000000     0.757360000000     0.500000000000     0          
O446     O      0.649600000000     0.419500000000     0.000000000000     0          
C447     C      0.684700000000     0.332100000000     0.000000000000     0          
C448     C      0.677400000000     0.275700000000     0.000000000000     0          
C449     C      0.737100000000     0.352500000000     0.000000000000     0          
C450     C      0.784400000000     0.319600000000     0.000000000000     0          
C451     C      0.776600000000     0.260200000000     0.000000000000     0          
H452     H      0.744340000000     0.399630000000     0.000000000000     0          
H453     H      0.827550000000     0.339880000000     0.000000000000     0          
O454     O      0.850400000000     0.080500000000     0.000000000000     0          
C455     C      0.815300000000     0.167900000000     0.000000000000     0          
C456     C      0.822600000000     0.224300000000     0.000000000000     0          
C457     C      0.762900000000     0.147500000000     0.000000000000     0          
C458     C      0.715600000000     0.180400000000     0.000000000000     0          
C459     C      0.723400000000     0.239800000000     0.000000000000     0          
H460     H      0.755660000000     0.100370000000     0.000000000000     0          
H461     H      0.672450000000     0.160120000000     0.000000000000     0          
O462     O      0.850400000000     0.580500000000     0.500000000000     0          
C463     C      0.815300000000     0.667900000000     0.500000000000     0          
C464     C      0.822600000000     0.724300000000     0.500000000000     0          
C465     C      0.762900000000     0.647500000000     0.500000000000     0          
C466     C      0.715600000000     0.680400000000     0.500000000000     0          
C467     C      0.723400000000     0.739800000000     0.500000000000     0          
H468     H      0.755660000000     0.600370000000     0.500000000000     0          
H469     H      0.672450000000     0.660120000000     0.500000000000     0          
H470     H      0.866610000000     0.742640000000     0.500000000000     0          
O471     O      0.350400000000     0.080500000000     0.500000000000     0          
O472     O      0.350400000000     0.580500000000     0.000000000000     0          
C473     C      0.315300000000     0.667900000000     0.000000000000     0          
C474     C      0.322600000000     0.724300000000     0.000000000000     0          
C475     C      0.262900000000     0.647500000000     0.000000000000     0          
C476     C      0.215600000000     0.680400000000     0.000000000000     0          
C477     C      0.223400000000     0.739800000000     0.000000000000     0          
H478     H      0.255660000000     0.600370000000     0.000000000000     0          
H479     H      0.172450000000     0.660120000000     0.000000000000     0          
O480     O      0.850400000000     0.919500000000     0.000000000000     0          
C481     C      0.815300000000     0.832100000000     0.000000000000     0          
C482     C      0.822600000000     0.775700000000     0.000000000000     0          
C483     C      0.762900000000     0.852500000000     0.000000000000     0          
C484     C      0.715600000000     0.819600000000     0.000000000000     0          
C485     C      0.723400000000     0.760200000000     0.000000000000     0          
H486     H      0.755660000000     0.899630000000     0.000000000000     0          
H487     H      0.672450000000     0.839880000000     0.000000000000     0          
O488     O      0.850400000000     0.419500000000     0.500000000000     0          
O489     O      0.350400000000     0.919500000000     0.500000000000     0          
O490     O      0.350400000000     0.419500000000     0.000000000000     0          
C491     C      0.000000000000     0.131900000000     0.131900000000     0          
C492     C      0.000000000000     0.631900000000     0.631900000000     0          
C493     C      0.500000000000     0.131900000000     0.631900000000     0          
C494     C      0.500000000000     0.631900000000     0.131900000000     0          
C495     C      0.000000000000     0.868100000000     0.131900000000     0          
C496     C      0.000000000000     0.368100000000     0.631900000000     0          
C497     C      0.500000000000     0.868100000000     0.631900000000     0          
C498     C      0.500000000000     0.368100000000     0.131900000000     0          
C499     C      0.000000000000     0.131900000000     0.868100000000     0          
C500     C      0.000000000000     0.631900000000     0.368100000000     0          
C501     C      0.500000000000     0.131900000000     0.368100000000     0          
C502     C      0.500000000000     0.631900000000     0.868100000000     0          
C503     C      0.000000000000     0.868100000000     0.868100000000     0          
C504     C      0.000000000000     0.368100000000     0.368100000000     0          
C505     C      0.500000000000     0.868100000000     0.368100000000     0          
C506     C      0.500000000000     0.368100000000     0.868100000000     0          
C507     C      0.131900000000     0.000000000000     0.131900000000     0          
C508     C      0.131900000000     0.500000000000     0.631900000000     0          
C509     C      0.631900000000     0.000000000000     0.631900000000     0          
C510     C      0.631900000000     0.500000000000     0.131900000000     0          
C511     C      0.131900000000     0.000000000000     0.868100000000     0          
C512     C      0.131900000000     0.500000000000     0.368100000000     0          
C513     C      0.631900000000     0.000000000000     0.368100000000     0          
C514     C      0.631900000000     0.500000000000     0.868100000000     0          
C515     C      0.868100000000     0.000000000000     0.131900000000     0          
C516     C      0.868100000000     0.500000000000     0.631900000000     0          
C517     C      0.368100000000     0.000000000000     0.631900000000     0          
C518     C      0.368100000000     0.500000000000     0.131900000000     0          
C519     C      0.868100000000     0.000000000000     0.868100000000     0          
C520     C      0.868100000000     0.500000000000     0.368100000000     0          
C521     C      0.368100000000     0.000000000000     0.368100000000     0          
C522     C      0.368100000000     0.500000000000     0.868100000000     0          
C523     C      0.131900000000     0.131900000000     0.000000000000     0          
C524     C      0.131900000000     0.631900000000     0.500000000000     0          
C525     C      0.631900000000     0.131900000000     0.500000000000     0          
C526     C      0.631900000000     0.631900000000     0.000000000000     0          
C527     C      0.868100000000     0.131900000000     0.000000000000     0          
C528     C      0.868100000000     0.631900000000     0.500000000000     0          
C529     C      0.368100000000     0.131900000000     0.500000000000     0          
C530     C      0.368100000000     0.631900000000     0.000000000000     0          
C531     C      0.131900000000     0.868100000000     0.000000000000     0          
C532     C      0.131900000000     0.368100000000     0.500000000000     0          
C533     C      0.631900000000     0.868100000000     0.500000000000     0          
C534     C      0.631900000000     0.368100000000     0.000000000000     0          
C535     C      0.868100000000     0.868100000000     0.000000000000     0          
C536     C      0.868100000000     0.368100000000     0.500000000000     0          
C537     C      0.368100000000     0.868100000000     0.500000000000     0          
C538     C      0.368100000000     0.368100000000     0.000000000000     0          
H539     H      0.000000000000     0.742640000000     0.633390000000     0          
H540     H      0.000000000000     0.757360000000     0.133390000000     0          
H541     H      0.000000000000     0.257360000000     0.633390000000     0          
H542     H      0.000000000000     0.242640000000     0.866610000000     0          
H543     H      0.000000000000     0.742640000000     0.366610000000     0          
H544     H      0.000000000000     0.757360000000     0.866610000000     0          
H545     H      0.133390000000     0.500000000000     0.257360000000     0          
H546     H      0.633390000000     0.000000000000     0.257360000000     0          
H547     H      0.633390000000     0.500000000000     0.757360000000     0          
H548     H      0.866610000000     0.000000000000     0.242640000000     0          
H549     H      0.866610000000     0.500000000000     0.742640000000     0          
H550     H      0.366610000000     0.500000000000     0.242640000000     0          
H551     H      0.242640000000     0.133390000000     0.000000000000     0          
H552     H      0.242640000000     0.633390000000     0.500000000000     0          
H553     H      0.742640000000     0.133390000000     0.500000000000     0          
H554     H      0.257360000000     0.133390000000     0.500000000000     0          
H555     H      0.242640000000     0.366610000000     0.500000000000     0          
H556     H      0.757360000000     0.366610000000     0.500000000000     0          
H557     H      0.257360000000     0.866610000000     0.500000000000     0          
H558     H      0.257360000000     0.366610000000     0.000000000000     0          
H559     H      0.242640000000     0.000000000000     0.866610000000     0          
H560     H      0.757360000000     0.000000000000     0.866610000000     0          
H561     H      0.757360000000     0.500000000000     0.366610000000     0          
H562     H      0.257360000000     0.000000000000     0.366610000000     0          
H563     H      0.257360000000     0.500000000000     0.866610000000     0          
H564     H      0.242640000000     0.000000000000     0.133390000000     0          
H565     H      0.242640000000     0.500000000000     0.633390000000     0          
H566     H      0.742640000000     0.000000000000     0.633390000000     0          
H567     H      0.742640000000     0.500000000000     0.133390000000     0          
H568     H      0.257360000000     0.000000000000     0.633390000000     0          
H569     H      0.500000000000     0.133390000000     0.257360000000     0          
H570     H      0.500000000000     0.633390000000     0.757360000000     0          
H571     H      0.000000000000     0.133390000000     0.242640000000     0          
H572     H      0.500000000000     0.133390000000     0.742640000000     0          
H573     H      0.500000000000     0.633390000000     0.242640000000     0          
H574     H      0.000000000000     0.366610000000     0.257360000000     0          
H575     H      0.500000000000     0.866610000000     0.257360000000     0          
H576     H      0.500000000000     0.366610000000     0.757360000000     0          
H577     H      0.500000000000     0.866610000000     0.742640000000     0          
H578     H      0.500000000000     0.366610000000     0.242640000000     0          
H579     H      0.633390000000     0.742640000000     0.000000000000     0          
H580     H      0.133390000000     0.757360000000     0.000000000000     0          
H581     H      0.633390000000     0.257360000000     0.000000000000     0          
H582     H      0.866610000000     0.242640000000     0.000000000000     0          
H583     H      0.866610000000     0.757360000000     0.000000000000     0          
H584     H      0.366610000000     0.742640000000     0.000000000000     0          


