data_OFOJEB

_audit_creation_method RASPA-1.0
_audit_creation_date 2020-12-14
_audit_author_name 'Rocio Bueno-Perez'

_cell_length_a    24.6147
_cell_length_b    69.169
_cell_length_c    19.5485
_cell_angle_alpha 90
_cell_angle_beta  92.081
_cell_angle_gamma 90
_cell_volume      33260.8

_symmetry_cell_setting          triclinic
_symmetry_space_group_name_Hall 'P 1'
_symmetry_space_group_name_H-M  'P 1'
_symmetry_Int_Tables_number     1

_symmetry_equiv_pos_as_xyz 'x,y,z'

loop_
_atom_site_label
_atom_site_type_symbol
_atom_site_fract_x
_atom_site_fract_y
_atom_site_fract_z
_atom_site_charge
Zr1      Zr     0.162740000000     0.357050000000     0.290880000000     0          
Zr2      Zr     0.246970000000     0.356880000000     0.150900000000     0          
Zr3      Zr     0.302580000000     0.347740000000     0.314760000000     0          
Zr4      Zr     0.192790000000     0.400530000000     0.205890000000     0          
Zr5      Zr     0.332640000000     0.390990000000     0.228380000000     0          
Zr6      Zr     0.248970000000     0.391600000000     0.369810000000     0          
O7       O      0.330200000000     0.378020000000     0.335600000000     0          
O8       O      0.307700000000     0.362490000000     0.223700000000     0          
O9       O      0.234900000000     0.363670000000     0.342200000000     0          
O10      O      0.260800000000     0.400620000000     0.270600000000     0          
O11      O      0.264700000000     0.389300000000     0.151200000000     0          
O12      O      0.231900000000     0.339840000000     0.250200000000     0          
O13      O      0.167400000000     0.389660000000     0.306000000000     0          
O14      O      0.185300000000     0.370920000000     0.202800000000     0          
O15      O      0.279900000000     0.320570000000     0.365000000000     0          
O16      O      0.150700000000     0.329900000000     0.339600000000     0          
O17      O      0.192400000000     0.304000000000     0.268400000000     0          
O18      O      0.875300000000     0.337670000000     0.290400000000     0          
O19      O      0.817900000000     0.336740000000     0.377900000000     0          
O20      O      0.685000000000     0.276000000000     0.582000000000     0          
O21      O      0.742400000000     0.294600000000     0.666900000000     0          
O22      O      0.785700000000     0.170720000000     0.640300000000     0          
O23      O      0.831500000000     0.176240000000     0.739400000000     0          
O24      O      0.069800000000     0.139210000000     0.575000000000     0          
O25      O      0.113500000000     0.156090000000     0.663500000000     0          
O26      O      0.246500000000     0.198700000000     0.362000000000     0          
O27      O      0.284700000000     0.224900000000     0.422700000000     0          
O28      O      0.185400000000     0.386540000000     0.441100000000     0          
O29      O      0.131900000000     0.362590000000     0.395700000000     0          
O30      O      0.307900000000     0.399800000000     0.716800000000     0          
O31      O      0.309600000000     0.362600000000     0.719900000000     0          
O32      O      0.161800000000     0.395860000000     0.098600000000     0          
O33      O      0.203000000000     0.369320000000     0.061500000000     0          
O34      O      0.346800000000     0.415490000000     0.167200000000     0          
O35      O      0.313600000000     0.410720000000     0.060300000000     0          
O36      O      0.638400000000     0.414420000000     0.201600000000     0          
O37      O      0.684900000000     0.412190000000     0.104400000000     0          
O38      O      0.288700000000     0.379820000000     0.462900000000     0          
O39      O      0.312100000000     0.348770000000     0.429700000000     0          
O40      O      0.373000000000     0.379270000000     0.133600000000     0          
O41      O      0.308800000000     0.360770000000     0.076000000000     0          
O42      O      0.175900000000     0.427240000000     0.270900000000     0          
O43      O      0.211900000000     0.419570000000     0.384400000000     0          
C44      C      0.159000000000     0.311200000000     0.312800000000     0          
C45      C      0.116600000000     0.296500000000     0.349100000000     0          
C46      C      0.108900000000     0.278800000000     0.324100000000     0          
H47      H      0.127820000000     0.274540000000     0.285390000000     0          
C48      C      0.072400000000     0.266700000000     0.356100000000     0          
H49      H      0.061830000000     0.254740000000     0.335850000000     0          
C50      C      0.050300000000     0.272800000000     0.422500000000     0          
C51      C      0.061800000000     0.290900000000     0.451200000000     0          
H52      H      0.047060000000     0.294860000000     0.493250000000     0          
C53      C      0.097300000000     0.303300000000     0.413300000000     0          
H54      H      0.107620000000     0.315660000000     0.430580000000     0          
C55      C      0.015000000000     0.258800000000     0.459200000000     0          
C56      C      0.033800000000     0.240700000000     0.482800000000     0          
C57      C      0.000500000000     0.229000000000     0.521100000000     0          
C58      C      0.950300000000     0.234900000000     0.538200000000     0          
C59      C      0.931600000000     0.252800000000     0.515500000000     0          
C60      C      0.963200000000     0.265000000000     0.476000000000     0          
C61      C      0.133600000000     0.242100000000     0.487300000000     0          
H62      H      0.129580000000     0.252520000000     0.518450000000     0          
C63      C      0.087900000000     0.232900000000     0.459000000000     0          
C64      C      0.093800000000     0.217700000000     0.413400000000     0          
H65      H      0.062600000000     0.211410000000     0.394030000000     0          
C66      C      0.145500000000     0.211700000000     0.396000000000     0          
H67      H      0.149500000000     0.201320000000     0.364850000000     0          
C68      C      0.191200000000     0.220900000000     0.424300000000     0          
C69      C      0.185200000000     0.236100000000     0.469900000000     0          
H70      H      0.216480000000     0.242430000000     0.489270000000     0          
C71      C      0.237000000000     0.215400000000     0.379000000000     0          
C72      C      0.022000000000     0.210300000000     0.542400000000     0          
C73      C      0.061800000000     0.209800000000     0.595600000000     0          
H74      H      0.074990000000     0.221330000000     0.616470000000     0          
C75      C      0.081900000000     0.191400000000     0.617200000000     0          
H76      H      0.109400000000     0.190620000000     0.652470000000     0          
C77      C      0.061000000000     0.174300000000     0.586400000000     0          
C78      C      0.022600000000     0.174500000000     0.534900000000     0          
H79      H      0.010190000000     0.163090000000     0.512440000000     0          
C80      C      0.001700000000     0.193600000000     0.516800000000     0          
H81      H      0.971790000000     0.194340000000     0.484830000000     0          
C82      C      0.086100000000     0.154800000000     0.610300000000     0          
C83      C      0.917500000000     0.221900000000     0.576300000000     0          
C84      C      0.930800000000     0.217700000000     0.647700000000     0          
H85      H      0.960380000000     0.223820000000     0.671560000000     0          
C86      C      0.897200000000     0.203800000000     0.680600000000     0          
H87      H      0.906580000000     0.200110000000     0.726350000000     0          
C88      C      0.849500000000     0.195200000000     0.647100000000     0          
C89      C      0.839700000000     0.198400000000     0.577300000000     0          
H90      H      0.811990000000     0.191230000000     0.553460000000     0          
C91      C      0.871300000000     0.212600000000     0.540300000000     0          
H92      H      0.862180000000     0.215650000000     0.493960000000     0          
C93      C      0.818000000000     0.178700000000     0.671600000000     0          
C94      C      0.873800000000     0.264700000000     0.607900000000     0          
H95      H      0.904790000000     0.263210000000     0.637900000000     0          
C96      C      0.876700000000     0.259700000000     0.539300000000     0          
C97      C      0.831400000000     0.261900000000     0.495500000000     0          
H98      H      0.833330000000     0.258480000000     0.448570000000     0          
C99      C      0.783200000000     0.269200000000     0.520200000000     0          
H100     H      0.752260000000     0.270670000000     0.490280000000     0          
C101     C      0.780400000000     0.274200000000     0.588900000000     0          
C102     C      0.825700000000     0.272000000000     0.632700000000     0          
H103     H      0.823730000000     0.275400000000     0.679610000000     0          
C104     C      0.728300000000     0.283900000000     0.613000000000     0          
C105     C      0.938500000000     0.281900000000     0.441200000000     0          
C106     C      0.937300000000     0.283900000000     0.371600000000     0          
H107     H      0.952830000000     0.274280000000     0.343750000000     0          
C108     C      0.913400000000     0.300100000000     0.342000000000     0          
H109     H      0.912360000000     0.301270000000     0.293510000000     0          
C110     C      0.890300000000     0.315100000000     0.381600000000     0          
C111     C      0.891500000000     0.313500000000     0.449600000000     0          
H112     H      0.875040000000     0.322960000000     0.477270000000     0          
C113     C      0.918000000000     0.297300000000     0.479500000000     0          
H114     H      0.922180000000     0.296750000000     0.527950000000     0          
C115     C      0.856300000000     0.331190000000     0.346700000000     0          
C116     C      0.146100000000     0.375300000000     0.442300000000     0          
C117     C      0.109600000000     0.376400000000     0.502700000000     0          
C118     C      0.114700000000     0.392800000000     0.543400000000     0          
H119     H      0.139450000000     0.402730000000     0.531920000000     0          
C120     C      0.084500000000     0.394600000000     0.599300000000     0          
H121     H      0.086030000000     0.406140000000     0.625750000000     0          
C122     C      0.051700000000     0.379600000000     0.617600000000     0          
C123     C      0.044900000000     0.362100000000     0.577300000000     0          
H124     H      0.021490000000     0.351990000000     0.590710000000     0          
C125     C      0.074400000000     0.360900000000     0.518000000000     0          
H126     H      0.071120000000     0.349960000000     0.488700000000     0          
C127     C      0.024000000000     0.380000000000     0.687900000000     0          
C128     C      0.057700000000     0.380400000000     0.746200000000     0          
C129     C      0.032600000000     0.381100000000     0.809200000000     0          
C130     C      0.067500000000     0.380800000000     0.875200000000     0          
C131     C      0.100900000000     0.365400000000     0.891500000000     0          
H132     H      0.101130000000     0.354290000000     0.863150000000     0          
C133     C      0.134600000000     0.366600000000     0.950700000000     0          
H134     H      0.158360000000     0.356090000000     0.961740000000     0          
C135     C      0.134300000000     0.382100000000     0.992700000000     0          
C136     C      0.099600000000     0.396800000000     0.974800000000     0          
H137     H      0.098540000000     0.407750000000     0.004140000000     0          
C138     C      0.065800000000     0.396800000000     0.916500000000     0          
H139     H      0.042390000000     0.407410000000     0.905740000000     0          
C140     C      0.167700000000     0.382800000000     0.055200000000     0          
C141     C      0.229200000000     0.379900000000     0.732000000000     0          
C142     C      0.203100000000     0.396500000000     0.753500000000     0          
H143     H      0.223560000000     0.407830000000     0.764460000000     0          
C144     C      0.146900000000     0.396600000000     0.758900000000     0          
H145     H      0.129030000000     0.408000000000     0.773570000000     0          
C146     C      0.116900000000     0.380100000000     0.742800000000     0          
C147     C      0.143100000000     0.363500000000     0.721300000000     0          
H148     H      0.122590000000     0.352220000000     0.710280000000     0          
C149     C      0.199200000000     0.363400000000     0.715900000000     0          
H150     H      0.217120000000     0.352050000000     0.701160000000     0          
C151     C      0.296700000000     0.381400000000     0.722100000000     0          
C152     C      0.304900000000     0.361400000000     0.474000000000     0          
C153     C      0.313600000000     0.356400000000     0.550700000000     0          
C154     C      0.189400000000     0.430500000000     0.343300000000     0          
C155     C      0.172300000000     0.450300000000     0.372500000000     0          
C156     C      0.354600000000     0.368200000000     0.083000000000     0          
C157     C      0.398000000000     0.364700000000     0.030200000000     0          
C158     C      0.342100000000     0.419680000000     0.104800000000     0          
C159     C      0.375600000000     0.435590000000     0.081400000000     0          
C160     C      0.396900000000     0.447780000000     0.127100000000     0          
H161     H      0.391100000000     0.445390000000     0.174090000000     0          
C162     C      0.427900000000     0.464290000000     0.109400000000     0          
H163     H      0.441760000000     0.473000000000     0.143370000000     0          
C164     C      0.437100000000     0.467100000000     0.040500000000     0          
C165     C      0.415700000000     0.454800000000     0.992400000000     0          
H166     H      0.421820000000     0.456880000000     0.945280000000     0          
C167     C      0.383900000000     0.438700000000     0.013200000000     0          
H168     H      0.368430000000     0.430130000000     0.979840000000     0          
C169     C      0.470300000000     0.483720000000     0.018900000000     0          
C170     C      0.526500000000     0.484170000000     0.031100000000     0          
C171     C      0.555800000000     0.500210000000     0.012800000000     0          
C172     C      0.555500000000     0.466610000000     0.060800000000     0          
C173     C      0.561600000000     0.464410000000     0.130200000000     0          
H174     H      0.545960000000     0.473390000000     0.160560000000     0          
C175     C      0.591200000000     0.448650000000     0.155000000000     0          
H176     H      0.594330000000     0.446660000000     0.203040000000     0          
C177     C      0.616100000000     0.435930000000     0.112900000000     0          
C178     C      0.611300000000     0.439030000000     0.044800000000     0          
H179     H      0.629450000000     0.430650000000     0.014710000000     0          
C180     C      0.580600000000     0.454070000000     0.018000000000     0          
H181     H      0.576960000000     0.455730000000     0.969780000000     0          
C182     C      0.649400000000     0.419680000000     0.139800000000     0          
C183     C      0.726900000000     0.499470000000     0.055800000000     0          
C184     C      0.706700000000     0.495570000000     0.989900000000     0          
H185     H      0.730990000000     0.492580000000     0.954730000000     0          
C186     C      0.651000000000     0.496030000000     0.975500000000     0          
H187     H      0.637210000000     0.493360000000     0.930500000000     0          
C188     C      0.615500000000     0.500400000000     0.027000000000     0          
C189     C      0.635700000000     0.504300000000     0.092900000000     0          
H190     H      0.611430000000     0.507290000000     0.128070000000     0          
C191     C      0.691400000000     0.503840000000     0.107300000000     0          
H192     H      0.705210000000     0.506510000000     0.152300000000     0          
O193     O      0.799900000000     0.504100000000     0.134800000000     0          
O194     O      0.819300000000     0.496300000000     0.023700000000     0          
C195     C      0.806600000000     0.500700000000     0.077200000000     0          
H196     H      0.344980000000     0.366660000000     0.575030000000     0          
H197     H      0.328740000000     0.340880000000     0.556070000000     0          
H198     H      0.273490000000     0.357980000000     0.577550000000     0          
H199     H      0.143260000000     0.447930000000     0.415840000000     0          
H200     H      0.151140000000     0.459190000000     0.330270000000     0          
H201     H      0.209900000000     0.458360000000     0.392890000000     0          
H202     H      0.383510000000     0.370870000000     0.978630000000     0          
H203     H      0.405360000000     0.348510000000     0.024920000000     0          
H204     H      0.437440000000     0.372120000000     0.047740000000     0          
Zr205    Zr     0.662740000000     0.857050000000     0.290880000000     0          
Zr206    Zr     0.746970000000     0.856880000000     0.150900000000     0          
Zr207    Zr     0.802580000000     0.847740000000     0.314760000000     0          
Zr208    Zr     0.692790000000     0.900530000000     0.205890000000     0          
Zr209    Zr     0.832640000000     0.890990000000     0.228380000000     0          
Zr210    Zr     0.748970000000     0.891600000000     0.369810000000     0          
O211     O      0.830200000000     0.878020000000     0.335600000000     0          
O212     O      0.807700000000     0.862490000000     0.223700000000     0          
O213     O      0.734900000000     0.863670000000     0.342200000000     0          
O214     O      0.760800000000     0.900620000000     0.270600000000     0          
O215     O      0.764700000000     0.889300000000     0.151200000000     0          
O216     O      0.731900000000     0.839840000000     0.250200000000     0          
O217     O      0.667400000000     0.889660000000     0.306000000000     0          
O218     O      0.685300000000     0.870920000000     0.202800000000     0          
O219     O      0.779900000000     0.820570000000     0.365000000000     0          
O220     O      0.650700000000     0.829900000000     0.339600000000     0          
O221     O      0.692400000000     0.804000000000     0.268400000000     0          
O222     O      0.375300000000     0.837670000000     0.290400000000     0          
O223     O      0.317900000000     0.836740000000     0.377900000000     0          
O224     O      0.185000000000     0.776000000000     0.582000000000     0          
O225     O      0.242400000000     0.794600000000     0.666900000000     0          
O226     O      0.285700000000     0.670720000000     0.640300000000     0          
O227     O      0.331500000000     0.676240000000     0.739400000000     0          
O228     O      0.569800000000     0.639210000000     0.575000000000     0          
O229     O      0.613500000000     0.656090000000     0.663500000000     0          
O230     O      0.746500000000     0.698700000000     0.362000000000     0          
O231     O      0.784700000000     0.724900000000     0.422700000000     0          
O232     O      0.685400000000     0.886540000000     0.441100000000     0          
O233     O      0.631900000000     0.862590000000     0.395700000000     0          
O234     O      0.807900000000     0.899800000000     0.716800000000     0          
O235     O      0.809600000000     0.862600000000     0.719900000000     0          
O236     O      0.661800000000     0.895860000000     0.098600000000     0          
O237     O      0.703000000000     0.869320000000     0.061500000000     0          
O238     O      0.846800000000     0.915490000000     0.167200000000     0          
O239     O      0.813600000000     0.910720000000     0.060300000000     0          
O240     O      0.138400000000     0.914420000000     0.201600000000     0          
O241     O      0.184900000000     0.912190000000     0.104400000000     0          
O242     O      0.788700000000     0.879820000000     0.462900000000     0          
O243     O      0.812100000000     0.848770000000     0.429700000000     0          
O244     O      0.873000000000     0.879270000000     0.133600000000     0          
O245     O      0.808800000000     0.860770000000     0.076000000000     0          
O246     O      0.675900000000     0.927240000000     0.270900000000     0          
O247     O      0.711900000000     0.919570000000     0.384400000000     0          
C248     C      0.659000000000     0.811200000000     0.312800000000     0          
C249     C      0.616600000000     0.796500000000     0.349100000000     0          
C250     C      0.608900000000     0.778800000000     0.324100000000     0          
H251     H      0.627820000000     0.774540000000     0.285390000000     0          
C252     C      0.572400000000     0.766700000000     0.356100000000     0          
H253     H      0.561830000000     0.754740000000     0.335850000000     0          
C254     C      0.550300000000     0.772800000000     0.422500000000     0          
C255     C      0.561800000000     0.790900000000     0.451200000000     0          
H256     H      0.547060000000     0.794860000000     0.493250000000     0          
C257     C      0.597300000000     0.803300000000     0.413300000000     0          
H258     H      0.607620000000     0.815660000000     0.430580000000     0          
C259     C      0.515000000000     0.758800000000     0.459200000000     0          
C260     C      0.533800000000     0.740700000000     0.482800000000     0          
C261     C      0.500500000000     0.729000000000     0.521100000000     0          
C262     C      0.450300000000     0.734900000000     0.538200000000     0          
C263     C      0.431600000000     0.752800000000     0.515500000000     0          
C264     C      0.463200000000     0.765000000000     0.476000000000     0          
C265     C      0.633600000000     0.742100000000     0.487300000000     0          
H266     H      0.629580000000     0.752520000000     0.518450000000     0          
C267     C      0.587900000000     0.732900000000     0.459000000000     0          
C268     C      0.593800000000     0.717700000000     0.413400000000     0          
H269     H      0.562600000000     0.711410000000     0.394030000000     0          
C270     C      0.645500000000     0.711700000000     0.396000000000     0          
H271     H      0.649500000000     0.701320000000     0.364850000000     0          
C272     C      0.691200000000     0.720900000000     0.424300000000     0          
C273     C      0.685200000000     0.736100000000     0.469900000000     0          
H274     H      0.716480000000     0.742430000000     0.489270000000     0          
C275     C      0.737000000000     0.715400000000     0.379000000000     0          
C276     C      0.522000000000     0.710300000000     0.542400000000     0          
C277     C      0.561800000000     0.709800000000     0.595600000000     0          
H278     H      0.574990000000     0.721330000000     0.616470000000     0          
C279     C      0.581900000000     0.691400000000     0.617200000000     0          
H280     H      0.609400000000     0.690620000000     0.652470000000     0          
C281     C      0.561000000000     0.674300000000     0.586400000000     0          
C282     C      0.522600000000     0.674500000000     0.534900000000     0          
H283     H      0.510190000000     0.663090000000     0.512440000000     0          
C284     C      0.501700000000     0.693600000000     0.516800000000     0          
H285     H      0.471790000000     0.694340000000     0.484830000000     0          
C286     C      0.586100000000     0.654800000000     0.610300000000     0          
C287     C      0.417500000000     0.721900000000     0.576300000000     0          
C288     C      0.430800000000     0.717700000000     0.647700000000     0          
H289     H      0.460380000000     0.723820000000     0.671560000000     0          
C290     C      0.397200000000     0.703800000000     0.680600000000     0          
H291     H      0.406580000000     0.700110000000     0.726350000000     0          
C292     C      0.349500000000     0.695200000000     0.647100000000     0          
C293     C      0.339700000000     0.698400000000     0.577300000000     0          
H294     H      0.311990000000     0.691230000000     0.553460000000     0          
C295     C      0.371300000000     0.712600000000     0.540300000000     0          
H296     H      0.362180000000     0.715650000000     0.493960000000     0          
C297     C      0.318000000000     0.678700000000     0.671600000000     0          
C298     C      0.373800000000     0.764700000000     0.607900000000     0          
H299     H      0.404790000000     0.763210000000     0.637900000000     0          
C300     C      0.376700000000     0.759700000000     0.539300000000     0          
C301     C      0.331400000000     0.761900000000     0.495500000000     0          
H302     H      0.333330000000     0.758480000000     0.448570000000     0          
C303     C      0.283200000000     0.769200000000     0.520200000000     0          
H304     H      0.252260000000     0.770670000000     0.490280000000     0          
C305     C      0.280400000000     0.774200000000     0.588900000000     0          
C306     C      0.325700000000     0.772000000000     0.632700000000     0          
H307     H      0.323730000000     0.775400000000     0.679610000000     0          
C308     C      0.228300000000     0.783900000000     0.613000000000     0          
C309     C      0.438500000000     0.781900000000     0.441200000000     0          
C310     C      0.437300000000     0.783900000000     0.371600000000     0          
H311     H      0.452830000000     0.774280000000     0.343750000000     0          
C312     C      0.413400000000     0.800100000000     0.342000000000     0          
H313     H      0.412360000000     0.801270000000     0.293510000000     0          
C314     C      0.390300000000     0.815100000000     0.381600000000     0          
C315     C      0.391500000000     0.813500000000     0.449600000000     0          
H316     H      0.375040000000     0.822960000000     0.477270000000     0          
C317     C      0.418000000000     0.797300000000     0.479500000000     0          
H318     H      0.422180000000     0.796750000000     0.527950000000     0          
C319     C      0.356300000000     0.831190000000     0.346700000000     0          
C320     C      0.646100000000     0.875300000000     0.442300000000     0          
C321     C      0.609600000000     0.876400000000     0.502700000000     0          
C322     C      0.614700000000     0.892800000000     0.543400000000     0          
H323     H      0.639450000000     0.902730000000     0.531920000000     0          
C324     C      0.584500000000     0.894600000000     0.599300000000     0          
H325     H      0.586030000000     0.906140000000     0.625750000000     0          
C326     C      0.551700000000     0.879600000000     0.617600000000     0          
C327     C      0.544900000000     0.862100000000     0.577300000000     0          
H328     H      0.521490000000     0.851990000000     0.590710000000     0          
C329     C      0.574400000000     0.860900000000     0.518000000000     0          
H330     H      0.571120000000     0.849960000000     0.488700000000     0          
C331     C      0.524000000000     0.880000000000     0.687900000000     0          
C332     C      0.557700000000     0.880400000000     0.746200000000     0          
C333     C      0.532600000000     0.881100000000     0.809200000000     0          
C334     C      0.567500000000     0.880800000000     0.875200000000     0          
C335     C      0.600900000000     0.865400000000     0.891500000000     0          
H336     H      0.601130000000     0.854290000000     0.863150000000     0          
C337     C      0.634600000000     0.866600000000     0.950700000000     0          
H338     H      0.658360000000     0.856090000000     0.961740000000     0          
C339     C      0.634300000000     0.882100000000     0.992700000000     0          
C340     C      0.599600000000     0.896800000000     0.974800000000     0          
H341     H      0.598540000000     0.907750000000     0.004140000000     0          
C342     C      0.565800000000     0.896800000000     0.916500000000     0          
H343     H      0.542390000000     0.907410000000     0.905740000000     0          
C344     C      0.667700000000     0.882800000000     0.055200000000     0          
C345     C      0.729200000000     0.879900000000     0.732000000000     0          
C346     C      0.703100000000     0.896500000000     0.753500000000     0          
H347     H      0.723560000000     0.907830000000     0.764460000000     0          
C348     C      0.646900000000     0.896600000000     0.758900000000     0          
H349     H      0.629030000000     0.908000000000     0.773570000000     0          
C350     C      0.616900000000     0.880100000000     0.742800000000     0          
C351     C      0.643100000000     0.863500000000     0.721300000000     0          
H352     H      0.622590000000     0.852220000000     0.710280000000     0          
C353     C      0.699200000000     0.863400000000     0.715900000000     0          
H354     H      0.717120000000     0.852050000000     0.701160000000     0          
C355     C      0.796700000000     0.881400000000     0.722100000000     0          
C356     C      0.804900000000     0.861400000000     0.474000000000     0          
C357     C      0.813600000000     0.856400000000     0.550700000000     0          
C358     C      0.689400000000     0.930500000000     0.343300000000     0          
C359     C      0.672300000000     0.950300000000     0.372500000000     0          
C360     C      0.854600000000     0.868200000000     0.083000000000     0          
C361     C      0.898000000000     0.864700000000     0.030200000000     0          
C362     C      0.842100000000     0.919680000000     0.104800000000     0          
C363     C      0.875600000000     0.935590000000     0.081400000000     0          
C364     C      0.896900000000     0.947780000000     0.127100000000     0          
H365     H      0.891100000000     0.945390000000     0.174090000000     0          
C366     C      0.927900000000     0.964290000000     0.109400000000     0          
H367     H      0.941760000000     0.973000000000     0.143370000000     0          
C368     C      0.937100000000     0.967100000000     0.040500000000     0          
C369     C      0.915700000000     0.954800000000     0.992400000000     0          
H370     H      0.921820000000     0.956880000000     0.945280000000     0          
C371     C      0.883900000000     0.938700000000     0.013200000000     0          
H372     H      0.868430000000     0.930130000000     0.979840000000     0          
C373     C      0.970300000000     0.983720000000     0.018900000000     0          
C374     C      0.026500000000     0.984170000000     0.031100000000     0          
C375     C      0.055800000000     0.000210000000     0.012800000000     0          
C376     C      0.055500000000     0.966610000000     0.060800000000     0          
C377     C      0.061600000000     0.964410000000     0.130200000000     0          
H378     H      0.045960000000     0.973390000000     0.160560000000     0          
C379     C      0.091200000000     0.948650000000     0.155000000000     0          
H380     H      0.094330000000     0.946660000000     0.203040000000     0          
C381     C      0.116100000000     0.935930000000     0.112900000000     0          
C382     C      0.111300000000     0.939030000000     0.044800000000     0          
H383     H      0.129450000000     0.930650000000     0.014710000000     0          
C384     C      0.080600000000     0.954070000000     0.018000000000     0          
H385     H      0.076960000000     0.955730000000     0.969780000000     0          
C386     C      0.149400000000     0.919680000000     0.139800000000     0          
C387     C      0.226900000000     0.999470000000     0.055800000000     0          
C388     C      0.206700000000     0.995570000000     0.989900000000     0          
H389     H      0.230990000000     0.992580000000     0.954730000000     0          
C390     C      0.151000000000     0.996030000000     0.975500000000     0          
H391     H      0.137210000000     0.993360000000     0.930500000000     0          
C392     C      0.115500000000     0.000400000000     0.027000000000     0          
C393     C      0.135700000000     0.004300000000     0.092900000000     0          
H394     H      0.111430000000     0.007290000000     0.128070000000     0          
C395     C      0.191400000000     0.003840000000     0.107300000000     0          
H396     H      0.205210000000     0.006510000000     0.152300000000     0          
O397     O      0.299900000000     0.004100000000     0.134800000000     0          
O398     O      0.319300000000     0.996300000000     0.023700000000     0          
C399     C      0.306600000000     0.000700000000     0.077200000000     0          
H400     H      0.844980000000     0.866660000000     0.575030000000     0          
H401     H      0.828740000000     0.840880000000     0.556070000000     0          
H402     H      0.773490000000     0.857980000000     0.577550000000     0          
H403     H      0.643260000000     0.947930000000     0.415840000000     0          
H404     H      0.651140000000     0.959190000000     0.330270000000     0          
H405     H      0.709900000000     0.958360000000     0.392890000000     0          
H406     H      0.883510000000     0.870870000000     0.978630000000     0          
H407     H      0.905360000000     0.848510000000     0.024920000000     0          
H408     H      0.937440000000     0.872120000000     0.047740000000     0          
Zr409    Zr     0.837260000000     0.357050000000     0.209120000000     0          
Zr410    Zr     0.753030000000     0.356880000000     0.349100000000     0          
Zr411    Zr     0.697420000000     0.347740000000     0.185240000000     0          
Zr412    Zr     0.807210000000     0.400530000000     0.294110000000     0          
Zr413    Zr     0.667360000000     0.390990000000     0.271620000000     0          
Zr414    Zr     0.751030000000     0.391600000000     0.130190000000     0          
O415     O      0.669800000000     0.378020000000     0.164400000000     0          
O416     O      0.692300000000     0.362490000000     0.276300000000     0          
O417     O      0.765100000000     0.363670000000     0.157800000000     0          
O418     O      0.739200000000     0.400620000000     0.229400000000     0          
O419     O      0.735300000000     0.389300000000     0.348800000000     0          
O420     O      0.768100000000     0.339840000000     0.249800000000     0          
O421     O      0.832600000000     0.389660000000     0.194000000000     0          
O422     O      0.814700000000     0.370920000000     0.297200000000     0          
O423     O      0.720100000000     0.320570000000     0.135000000000     0          
O424     O      0.849300000000     0.329900000000     0.160400000000     0          
O425     O      0.807600000000     0.304000000000     0.231600000000     0          
O426     O      0.124700000000     0.337670000000     0.209600000000     0          
O427     O      0.182100000000     0.336740000000     0.122100000000     0          
O428     O      0.315000000000     0.276000000000     0.918000000000     0          
O429     O      0.257600000000     0.294600000000     0.833100000000     0          
O430     O      0.214300000000     0.170720000000     0.859700000000     0          
O431     O      0.168500000000     0.176240000000     0.760600000000     0          
O432     O      0.930200000000     0.139210000000     0.925000000000     0          
O433     O      0.886500000000     0.156090000000     0.836500000000     0          
O434     O      0.753500000000     0.198700000000     0.138000000000     0          
O435     O      0.715300000000     0.224900000000     0.077300000000     0          
O436     O      0.814600000000     0.386540000000     0.058900000000     0          
O437     O      0.868100000000     0.362590000000     0.104300000000     0          
O438     O      0.692100000000     0.399800000000     0.783200000000     0          
O439     O      0.690400000000     0.362600000000     0.780100000000     0          
O440     O      0.838200000000     0.395860000000     0.401400000000     0          
O441     O      0.797000000000     0.369320000000     0.438500000000     0          
O442     O      0.653200000000     0.415490000000     0.332800000000     0          
O443     O      0.686400000000     0.410720000000     0.439700000000     0          
O444     O      0.361600000000     0.414420000000     0.298400000000     0          
O445     O      0.315100000000     0.412190000000     0.395600000000     0          
O446     O      0.711300000000     0.379820000000     0.037100000000     0          
O447     O      0.687900000000     0.348770000000     0.070300000000     0          
O448     O      0.627000000000     0.379270000000     0.366400000000     0          
O449     O      0.691200000000     0.360770000000     0.424000000000     0          
O450     O      0.824100000000     0.427240000000     0.229100000000     0          
O451     O      0.788100000000     0.419570000000     0.115600000000     0          
C452     C      0.841000000000     0.311200000000     0.187200000000     0          
C453     C      0.883400000000     0.296500000000     0.150900000000     0          
C454     C      0.891100000000     0.278800000000     0.175900000000     0          
H455     H      0.872180000000     0.274540000000     0.214610000000     0          
C456     C      0.927600000000     0.266700000000     0.143900000000     0          
H457     H      0.938170000000     0.254740000000     0.164150000000     0          
C458     C      0.949700000000     0.272800000000     0.077500000000     0          
C459     C      0.938200000000     0.290900000000     0.048800000000     0          
H460     H      0.952940000000     0.294860000000     0.006750000000     0          
C461     C      0.902700000000     0.303300000000     0.086700000000     0          
H462     H      0.892380000000     0.315660000000     0.069420000000     0          
C463     C      0.985000000000     0.258800000000     0.040800000000     0          
C464     C      0.966200000000     0.240700000000     0.017200000000     0          
C465     C      0.999500000000     0.229000000000     0.978900000000     0          
C466     C      0.049700000000     0.234900000000     0.961800000000     0          
C467     C      0.068400000000     0.252800000000     0.984500000000     0          
C468     C      0.036800000000     0.265000000000     0.024000000000     0          
C469     C      0.866400000000     0.242100000000     0.012700000000     0          
H470     H      0.870420000000     0.252520000000     0.981550000000     0          
C471     C      0.912100000000     0.232900000000     0.041000000000     0          
C472     C      0.906200000000     0.217700000000     0.086600000000     0          
H473     H      0.937400000000     0.211410000000     0.105970000000     0          
C474     C      0.854500000000     0.211700000000     0.104000000000     0          
H475     H      0.850500000000     0.201320000000     0.135150000000     0          
C476     C      0.808800000000     0.220900000000     0.075700000000     0          
C477     C      0.814800000000     0.236100000000     0.030100000000     0          
H478     H      0.783520000000     0.242430000000     0.010730000000     0          
C479     C      0.763000000000     0.215400000000     0.121000000000     0          
C480     C      0.978000000000     0.210300000000     0.957600000000     0          
C481     C      0.938200000000     0.209800000000     0.904400000000     0          
H482     H      0.925010000000     0.221330000000     0.883530000000     0          
C483     C      0.918100000000     0.191400000000     0.882800000000     0          
H484     H      0.890600000000     0.190620000000     0.847530000000     0          
C485     C      0.939000000000     0.174300000000     0.913600000000     0          
C486     C      0.977400000000     0.174500000000     0.965100000000     0          
H487     H      0.989810000000     0.163090000000     0.987560000000     0          
C488     C      0.998300000000     0.193600000000     0.983200000000     0          
H489     H      0.028210000000     0.194340000000     0.015170000000     0          
C490     C      0.913900000000     0.154800000000     0.889700000000     0          
C491     C      0.082500000000     0.221900000000     0.923700000000     0          
C492     C      0.069200000000     0.217700000000     0.852300000000     0          
H493     H      0.039620000000     0.223820000000     0.828440000000     0          
C494     C      0.102800000000     0.203800000000     0.819400000000     0          
H495     H      0.093420000000     0.200110000000     0.773650000000     0          
C496     C      0.150500000000     0.195200000000     0.852900000000     0          
C497     C      0.160300000000     0.198400000000     0.922700000000     0          
H498     H      0.188010000000     0.191230000000     0.946540000000     0          
C499     C      0.128700000000     0.212600000000     0.959700000000     0          
H500     H      0.137820000000     0.215650000000     0.006040000000     0          
C501     C      0.182000000000     0.178700000000     0.828400000000     0          
C502     C      0.126200000000     0.264700000000     0.892100000000     0          
H503     H      0.095210000000     0.263210000000     0.862100000000     0          
C504     C      0.123300000000     0.259700000000     0.960700000000     0          
C505     C      0.168600000000     0.261900000000     0.004500000000     0          
H506     H      0.166670000000     0.258480000000     0.051430000000     0          
C507     C      0.216800000000     0.269200000000     0.979800000000     0          
H508     H      0.247740000000     0.270670000000     0.009720000000     0          
C509     C      0.219600000000     0.274200000000     0.911100000000     0          
C510     C      0.174300000000     0.272000000000     0.867300000000     0          
H511     H      0.176270000000     0.275400000000     0.820390000000     0          
C512     C      0.271700000000     0.283900000000     0.887000000000     0          
C513     C      0.061500000000     0.281900000000     0.058800000000     0          
C514     C      0.062700000000     0.283900000000     0.128400000000     0          
H515     H      0.047170000000     0.274280000000     0.156250000000     0          
C516     C      0.086600000000     0.300100000000     0.158000000000     0          
H517     H      0.087640000000     0.301270000000     0.206490000000     0          
C518     C      0.109700000000     0.315100000000     0.118400000000     0          
C519     C      0.108500000000     0.313500000000     0.050400000000     0          
H520     H      0.124960000000     0.322960000000     0.022730000000     0          
C521     C      0.082000000000     0.297300000000     0.020500000000     0          
H522     H      0.077820000000     0.296750000000     0.972050000000     0          
C523     C      0.143700000000     0.331190000000     0.153300000000     0          
C524     C      0.853900000000     0.375300000000     0.057700000000     0          
C525     C      0.890400000000     0.376400000000     0.997300000000     0          
C526     C      0.885300000000     0.392800000000     0.956600000000     0          
H527     H      0.860550000000     0.402730000000     0.968080000000     0          
C528     C      0.915500000000     0.394600000000     0.900700000000     0          
H529     H      0.913970000000     0.406140000000     0.874250000000     0          
C530     C      0.948300000000     0.379600000000     0.882400000000     0          
C531     C      0.955100000000     0.362100000000     0.922700000000     0          
H532     H      0.978510000000     0.351990000000     0.909290000000     0          
C533     C      0.925600000000     0.360900000000     0.982000000000     0          
H534     H      0.928880000000     0.349960000000     0.011300000000     0          
C535     C      0.976000000000     0.380000000000     0.812100000000     0          
C536     C      0.942300000000     0.380400000000     0.753800000000     0          
C537     C      0.967400000000     0.381100000000     0.690800000000     0          
C538     C      0.932500000000     0.380800000000     0.624800000000     0          
C539     C      0.899100000000     0.365400000000     0.608500000000     0          
H540     H      0.898870000000     0.354290000000     0.636850000000     0          
C541     C      0.865400000000     0.366600000000     0.549300000000     0          
H542     H      0.841640000000     0.356090000000     0.538260000000     0          
C543     C      0.865700000000     0.382100000000     0.507300000000     0          
C544     C      0.900400000000     0.396800000000     0.525200000000     0          
H545     H      0.901460000000     0.407750000000     0.495860000000     0          
C546     C      0.934200000000     0.396800000000     0.583500000000     0          
H547     H      0.957610000000     0.407410000000     0.594260000000     0          
C548     C      0.832300000000     0.382800000000     0.444800000000     0          
C549     C      0.770800000000     0.379900000000     0.768000000000     0          
C550     C      0.796900000000     0.396500000000     0.746500000000     0          
H551     H      0.776440000000     0.407830000000     0.735540000000     0          
C552     C      0.853100000000     0.396600000000     0.741100000000     0          
H553     H      0.870970000000     0.408000000000     0.726430000000     0          
C554     C      0.883100000000     0.380100000000     0.757200000000     0          
C555     C      0.856900000000     0.363500000000     0.778700000000     0          
H556     H      0.877410000000     0.352220000000     0.789720000000     0          
C557     C      0.800800000000     0.363400000000     0.784100000000     0          
H558     H      0.782880000000     0.352050000000     0.798840000000     0          
C559     C      0.703300000000     0.381400000000     0.777900000000     0          
C560     C      0.695100000000     0.361400000000     0.026000000000     0          
C561     C      0.686400000000     0.356400000000     0.949300000000     0          
C562     C      0.810600000000     0.430500000000     0.156700000000     0          
C563     C      0.827700000000     0.450300000000     0.127500000000     0          
C564     C      0.645400000000     0.368200000000     0.417000000000     0          
C565     C      0.602000000000     0.364700000000     0.469800000000     0          
C566     C      0.657900000000     0.419680000000     0.395200000000     0          
C567     C      0.624400000000     0.435590000000     0.418600000000     0          
C568     C      0.603100000000     0.447780000000     0.372900000000     0          
H569     H      0.608900000000     0.445390000000     0.325910000000     0          
C570     C      0.572100000000     0.464290000000     0.390600000000     0          
H571     H      0.558240000000     0.473000000000     0.356630000000     0          
C572     C      0.562900000000     0.467100000000     0.459500000000     0          
C573     C      0.584300000000     0.454800000000     0.507600000000     0          
H574     H      0.578180000000     0.456880000000     0.554720000000     0          
C575     C      0.616100000000     0.438700000000     0.486800000000     0          
H576     H      0.631570000000     0.430130000000     0.520160000000     0          
C577     C      0.529700000000     0.483720000000     0.481100000000     0          
C578     C      0.473500000000     0.484170000000     0.468900000000     0          
C579     C      0.444200000000     0.500210000000     0.487200000000     0          
C580     C      0.444500000000     0.466610000000     0.439200000000     0          
C581     C      0.438400000000     0.464410000000     0.369800000000     0          
H582     H      0.454040000000     0.473390000000     0.339440000000     0          
C583     C      0.408800000000     0.448650000000     0.345000000000     0          
H584     H      0.405670000000     0.446660000000     0.296960000000     0          
C585     C      0.383900000000     0.435930000000     0.387100000000     0          
C586     C      0.388700000000     0.439030000000     0.455200000000     0          
H587     H      0.370550000000     0.430650000000     0.485290000000     0          
C588     C      0.419400000000     0.454070000000     0.482000000000     0          
H589     H      0.423040000000     0.455730000000     0.530220000000     0          
C590     C      0.350600000000     0.419680000000     0.360200000000     0          
C591     C      0.273100000000     0.499470000000     0.444200000000     0          
C592     C      0.293300000000     0.495570000000     0.510100000000     0          
H593     H      0.269010000000     0.492580000000     0.545270000000     0          
C594     C      0.349000000000     0.496030000000     0.524500000000     0          
H595     H      0.362790000000     0.493360000000     0.569500000000     0          
C596     C      0.384500000000     0.500400000000     0.473000000000     0          
C597     C      0.364300000000     0.504300000000     0.407100000000     0          
H598     H      0.388570000000     0.507290000000     0.371930000000     0          
C599     C      0.308600000000     0.503840000000     0.392700000000     0          
H600     H      0.294790000000     0.506510000000     0.347700000000     0          
O601     O      0.200100000000     0.504100000000     0.365200000000     0          
O602     O      0.180700000000     0.496300000000     0.476300000000     0          
C603     C      0.193400000000     0.500700000000     0.422800000000     0          
H604     H      0.655020000000     0.366660000000     0.924970000000     0          
H605     H      0.671260000000     0.340880000000     0.943930000000     0          
H606     H      0.726510000000     0.357980000000     0.922450000000     0          
H607     H      0.856740000000     0.447930000000     0.084160000000     0          
H608     H      0.848860000000     0.459190000000     0.169730000000     0          
H609     H      0.790100000000     0.458360000000     0.107110000000     0          
H610     H      0.616490000000     0.370870000000     0.521370000000     0          
H611     H      0.594640000000     0.348510000000     0.475080000000     0          
H612     H      0.562560000000     0.372120000000     0.452260000000     0          
Zr613    Zr     0.337260000000     0.857050000000     0.209120000000     0          
Zr614    Zr     0.253030000000     0.856880000000     0.349100000000     0          
Zr615    Zr     0.197420000000     0.847740000000     0.185240000000     0          
Zr616    Zr     0.307210000000     0.900530000000     0.294110000000     0          
Zr617    Zr     0.167360000000     0.890990000000     0.271620000000     0          
Zr618    Zr     0.251030000000     0.891600000000     0.130190000000     0          
O619     O      0.169800000000     0.878020000000     0.164400000000     0          
O620     O      0.192300000000     0.862490000000     0.276300000000     0          
O621     O      0.265100000000     0.863670000000     0.157800000000     0          
O622     O      0.239200000000     0.900620000000     0.229400000000     0          
O623     O      0.235300000000     0.889300000000     0.348800000000     0          
O624     O      0.268100000000     0.839840000000     0.249800000000     0          
O625     O      0.332600000000     0.889660000000     0.194000000000     0          
O626     O      0.314700000000     0.870920000000     0.297200000000     0          
O627     O      0.220100000000     0.820570000000     0.135000000000     0          
O628     O      0.349300000000     0.829900000000     0.160400000000     0          
O629     O      0.307600000000     0.804000000000     0.231600000000     0          
O630     O      0.624700000000     0.837670000000     0.209600000000     0          
O631     O      0.682100000000     0.836740000000     0.122100000000     0          
O632     O      0.815000000000     0.776000000000     0.918000000000     0          
O633     O      0.757600000000     0.794600000000     0.833100000000     0          
O634     O      0.714300000000     0.670720000000     0.859700000000     0          
O635     O      0.668500000000     0.676240000000     0.760600000000     0          
O636     O      0.430200000000     0.639210000000     0.925000000000     0          
O637     O      0.386500000000     0.656090000000     0.836500000000     0          
O638     O      0.253500000000     0.698700000000     0.138000000000     0          
O639     O      0.215300000000     0.724900000000     0.077300000000     0          
O640     O      0.314600000000     0.886540000000     0.058900000000     0          
O641     O      0.368100000000     0.862590000000     0.104300000000     0          
O642     O      0.192100000000     0.899800000000     0.783200000000     0          
O643     O      0.190400000000     0.862600000000     0.780100000000     0          
O644     O      0.338200000000     0.895860000000     0.401400000000     0          
O645     O      0.297000000000     0.869320000000     0.438500000000     0          
O646     O      0.153200000000     0.915490000000     0.332800000000     0          
O647     O      0.186400000000     0.910720000000     0.439700000000     0          
O648     O      0.861600000000     0.914420000000     0.298400000000     0          
O649     O      0.815100000000     0.912190000000     0.395600000000     0          
O650     O      0.211300000000     0.879820000000     0.037100000000     0          
O651     O      0.187900000000     0.848770000000     0.070300000000     0          
O652     O      0.127000000000     0.879270000000     0.366400000000     0          
O653     O      0.191200000000     0.860770000000     0.424000000000     0          
O654     O      0.324100000000     0.927240000000     0.229100000000     0          
O655     O      0.288100000000     0.919570000000     0.115600000000     0          
C656     C      0.341000000000     0.811200000000     0.187200000000     0          
C657     C      0.383400000000     0.796500000000     0.150900000000     0          
C658     C      0.391100000000     0.778800000000     0.175900000000     0          
H659     H      0.372180000000     0.774540000000     0.214610000000     0          
C660     C      0.427600000000     0.766700000000     0.143900000000     0          
H661     H      0.438170000000     0.754740000000     0.164150000000     0          
C662     C      0.449700000000     0.772800000000     0.077500000000     0          
C663     C      0.438200000000     0.790900000000     0.048800000000     0          
H664     H      0.452940000000     0.794860000000     0.006750000000     0          
C665     C      0.402700000000     0.803300000000     0.086700000000     0          
H666     H      0.392380000000     0.815660000000     0.069420000000     0          
C667     C      0.485000000000     0.758800000000     0.040800000000     0          
C668     C      0.466200000000     0.740700000000     0.017200000000     0          
C669     C      0.499500000000     0.729000000000     0.978900000000     0          
C670     C      0.549700000000     0.734900000000     0.961800000000     0          
C671     C      0.568400000000     0.752800000000     0.984500000000     0          
C672     C      0.536800000000     0.765000000000     0.024000000000     0          
C673     C      0.366400000000     0.742100000000     0.012700000000     0          
H674     H      0.370420000000     0.752520000000     0.981550000000     0          
C675     C      0.412100000000     0.732900000000     0.041000000000     0          
C676     C      0.406200000000     0.717700000000     0.086600000000     0          
H677     H      0.437400000000     0.711410000000     0.105970000000     0          
C678     C      0.354500000000     0.711700000000     0.104000000000     0          
H679     H      0.350500000000     0.701320000000     0.135150000000     0          
C680     C      0.308800000000     0.720900000000     0.075700000000     0          
C681     C      0.314800000000     0.736100000000     0.030100000000     0          
H682     H      0.283520000000     0.742430000000     0.010730000000     0          
C683     C      0.263000000000     0.715400000000     0.121000000000     0          
C684     C      0.478000000000     0.710300000000     0.957600000000     0          
C685     C      0.438200000000     0.709800000000     0.904400000000     0          
H686     H      0.425010000000     0.721330000000     0.883530000000     0          
C687     C      0.418100000000     0.691400000000     0.882800000000     0          
H688     H      0.390600000000     0.690620000000     0.847530000000     0          
C689     C      0.439000000000     0.674300000000     0.913600000000     0          
C690     C      0.477400000000     0.674500000000     0.965100000000     0          
H691     H      0.489810000000     0.663090000000     0.987560000000     0          
C692     C      0.498300000000     0.693600000000     0.983200000000     0          
H693     H      0.528210000000     0.694340000000     0.015170000000     0          
C694     C      0.413900000000     0.654800000000     0.889700000000     0          
C695     C      0.582500000000     0.721900000000     0.923700000000     0          
C696     C      0.569200000000     0.717700000000     0.852300000000     0          
H697     H      0.539620000000     0.723820000000     0.828440000000     0          
C698     C      0.602800000000     0.703800000000     0.819400000000     0          
H699     H      0.593420000000     0.700110000000     0.773650000000     0          
C700     C      0.650500000000     0.695200000000     0.852900000000     0          
C701     C      0.660300000000     0.698400000000     0.922700000000     0          
H702     H      0.688010000000     0.691230000000     0.946540000000     0          
C703     C      0.628700000000     0.712600000000     0.959700000000     0          
H704     H      0.637820000000     0.715650000000     0.006040000000     0          
C705     C      0.682000000000     0.678700000000     0.828400000000     0          
C706     C      0.626200000000     0.764700000000     0.892100000000     0          
H707     H      0.595210000000     0.763210000000     0.862100000000     0          
C708     C      0.623300000000     0.759700000000     0.960700000000     0          
C709     C      0.668600000000     0.761900000000     0.004500000000     0          
H710     H      0.666670000000     0.758480000000     0.051430000000     0          
C711     C      0.716800000000     0.769200000000     0.979800000000     0          
H712     H      0.747740000000     0.770670000000     0.009720000000     0          
C713     C      0.719600000000     0.774200000000     0.911100000000     0          
C714     C      0.674300000000     0.772000000000     0.867300000000     0          
H715     H      0.676270000000     0.775400000000     0.820390000000     0          
C716     C      0.771700000000     0.783900000000     0.887000000000     0          
C717     C      0.561500000000     0.781900000000     0.058800000000     0          
C718     C      0.562700000000     0.783900000000     0.128400000000     0          
H719     H      0.547170000000     0.774280000000     0.156250000000     0          
C720     C      0.586600000000     0.800100000000     0.158000000000     0          
H721     H      0.587640000000     0.801270000000     0.206490000000     0          
C722     C      0.609700000000     0.815100000000     0.118400000000     0          
C723     C      0.608500000000     0.813500000000     0.050400000000     0          
H724     H      0.624960000000     0.822960000000     0.022730000000     0          
C725     C      0.582000000000     0.797300000000     0.020500000000     0          
H726     H      0.577820000000     0.796750000000     0.972050000000     0          
C727     C      0.643700000000     0.831190000000     0.153300000000     0          
C728     C      0.353900000000     0.875300000000     0.057700000000     0          
C729     C      0.390400000000     0.876400000000     0.997300000000     0          
C730     C      0.385300000000     0.892800000000     0.956600000000     0          
H731     H      0.360550000000     0.902730000000     0.968080000000     0          
C732     C      0.415500000000     0.894600000000     0.900700000000     0          
H733     H      0.413970000000     0.906140000000     0.874250000000     0          
C734     C      0.448300000000     0.879600000000     0.882400000000     0          
C735     C      0.455100000000     0.862100000000     0.922700000000     0          
H736     H      0.478510000000     0.851990000000     0.909290000000     0          
C737     C      0.425600000000     0.860900000000     0.982000000000     0          
H738     H      0.428880000000     0.849960000000     0.011300000000     0          
C739     C      0.476000000000     0.880000000000     0.812100000000     0          
C740     C      0.442300000000     0.880400000000     0.753800000000     0          
C741     C      0.467400000000     0.881100000000     0.690800000000     0          
C742     C      0.432500000000     0.880800000000     0.624800000000     0          
C743     C      0.399100000000     0.865400000000     0.608500000000     0          
H744     H      0.398870000000     0.854290000000     0.636850000000     0          
C745     C      0.365400000000     0.866600000000     0.549300000000     0          
H746     H      0.341640000000     0.856090000000     0.538260000000     0          
C747     C      0.365700000000     0.882100000000     0.507300000000     0          
C748     C      0.400400000000     0.896800000000     0.525200000000     0          
H749     H      0.401460000000     0.907750000000     0.495860000000     0          
C750     C      0.434200000000     0.896800000000     0.583500000000     0          
H751     H      0.457610000000     0.907410000000     0.594260000000     0          
C752     C      0.332300000000     0.882800000000     0.444800000000     0          
C753     C      0.270800000000     0.879900000000     0.768000000000     0          
C754     C      0.296900000000     0.896500000000     0.746500000000     0          
H755     H      0.276440000000     0.907830000000     0.735540000000     0          
C756     C      0.353100000000     0.896600000000     0.741100000000     0          
H757     H      0.370970000000     0.908000000000     0.726430000000     0          
C758     C      0.383100000000     0.880100000000     0.757200000000     0          
C759     C      0.356900000000     0.863500000000     0.778700000000     0          
H760     H      0.377410000000     0.852220000000     0.789720000000     0          
C761     C      0.300800000000     0.863400000000     0.784100000000     0          
H762     H      0.282880000000     0.852050000000     0.798840000000     0          
C763     C      0.203300000000     0.881400000000     0.777900000000     0          
C764     C      0.195100000000     0.861400000000     0.026000000000     0          
C765     C      0.186400000000     0.856400000000     0.949300000000     0          
C766     C      0.310600000000     0.930500000000     0.156700000000     0          
C767     C      0.327700000000     0.950300000000     0.127500000000     0          
C768     C      0.145400000000     0.868200000000     0.417000000000     0          
C769     C      0.102000000000     0.864700000000     0.469800000000     0          
C770     C      0.157900000000     0.919680000000     0.395200000000     0          
C771     C      0.124400000000     0.935590000000     0.418600000000     0          
C772     C      0.103100000000     0.947780000000     0.372900000000     0          
H773     H      0.108900000000     0.945390000000     0.325910000000     0          
C774     C      0.072100000000     0.964290000000     0.390600000000     0          
H775     H      0.058240000000     0.973000000000     0.356630000000     0          
C776     C      0.062900000000     0.967100000000     0.459500000000     0          
C777     C      0.084300000000     0.954800000000     0.507600000000     0          
H778     H      0.078180000000     0.956880000000     0.554720000000     0          
C779     C      0.116100000000     0.938700000000     0.486800000000     0          
H780     H      0.131570000000     0.930130000000     0.520160000000     0          
C781     C      0.029700000000     0.983720000000     0.481100000000     0          
C782     C      0.973500000000     0.984170000000     0.468900000000     0          
C783     C      0.944200000000     0.000210000000     0.487200000000     0          
C784     C      0.944500000000     0.966610000000     0.439200000000     0          
C785     C      0.938400000000     0.964410000000     0.369800000000     0          
H786     H      0.954040000000     0.973390000000     0.339440000000     0          
C787     C      0.908800000000     0.948650000000     0.345000000000     0          
H788     H      0.905670000000     0.946660000000     0.296960000000     0          
C789     C      0.883900000000     0.935930000000     0.387100000000     0          
C790     C      0.888700000000     0.939030000000     0.455200000000     0          
H791     H      0.870550000000     0.930650000000     0.485290000000     0          
C792     C      0.919400000000     0.954070000000     0.482000000000     0          
H793     H      0.923040000000     0.955730000000     0.530220000000     0          
C794     C      0.850600000000     0.919680000000     0.360200000000     0          
C795     C      0.773100000000     0.999470000000     0.444200000000     0          
C796     C      0.793300000000     0.995570000000     0.510100000000     0          
H797     H      0.769010000000     0.992580000000     0.545270000000     0          
C798     C      0.849000000000     0.996030000000     0.524500000000     0          
H799     H      0.862790000000     0.993360000000     0.569500000000     0          
C800     C      0.884500000000     0.000400000000     0.473000000000     0          
C801     C      0.864300000000     0.004300000000     0.407100000000     0          
H802     H      0.888570000000     0.007290000000     0.371930000000     0          
C803     C      0.808600000000     0.003840000000     0.392700000000     0          
H804     H      0.794790000000     0.006510000000     0.347700000000     0          
O805     O      0.700100000000     0.004100000000     0.365200000000     0          
O806     O      0.680700000000     0.996300000000     0.476300000000     0          
C807     C      0.693400000000     0.000700000000     0.422800000000     0          
H808     H      0.155020000000     0.866660000000     0.924970000000     0          
H809     H      0.171260000000     0.840880000000     0.943930000000     0          
H810     H      0.226510000000     0.857980000000     0.922450000000     0          
H811     H      0.356740000000     0.947930000000     0.084160000000     0          
H812     H      0.348860000000     0.959190000000     0.169730000000     0          
H813     H      0.290100000000     0.958360000000     0.107110000000     0          
H814     H      0.116490000000     0.870870000000     0.521370000000     0          
H815     H      0.094640000000     0.848510000000     0.475080000000     0          
H816     H      0.062560000000     0.872120000000     0.452260000000     0          
Zr817    Zr     0.837260000000     0.642950000000     0.709120000000     0          
Zr818    Zr     0.753030000000     0.643120000000     0.849100000000     0          
Zr819    Zr     0.697420000000     0.652260000000     0.685240000000     0          
Zr820    Zr     0.807210000000     0.599470000000     0.794110000000     0          
Zr821    Zr     0.667360000000     0.609010000000     0.771620000000     0          
Zr822    Zr     0.751030000000     0.608400000000     0.630190000000     0          
O823     O      0.669800000000     0.621980000000     0.664400000000     0          
O824     O      0.692300000000     0.637510000000     0.776300000000     0          
O825     O      0.765100000000     0.636330000000     0.657800000000     0          
O826     O      0.739200000000     0.599380000000     0.729400000000     0          
O827     O      0.735300000000     0.610700000000     0.848800000000     0          
O828     O      0.768100000000     0.660160000000     0.749800000000     0          
O829     O      0.832600000000     0.610340000000     0.694000000000     0          
O830     O      0.814700000000     0.629080000000     0.797200000000     0          
O831     O      0.720100000000     0.679430000000     0.635000000000     0          
O832     O      0.849300000000     0.670100000000     0.660400000000     0          
O833     O      0.807600000000     0.696000000000     0.731600000000     0          
O834     O      0.124700000000     0.662330000000     0.709600000000     0          
O835     O      0.182100000000     0.663260000000     0.622100000000     0          
O836     O      0.315000000000     0.724000000000     0.418000000000     0          
O837     O      0.257600000000     0.705400000000     0.333100000000     0          
O838     O      0.214300000000     0.829280000000     0.359700000000     0          
O839     O      0.168500000000     0.823760000000     0.260600000000     0          
O840     O      0.930200000000     0.860790000000     0.425000000000     0          
O841     O      0.886500000000     0.843910000000     0.336500000000     0          
O842     O      0.753500000000     0.801300000000     0.638000000000     0          
O843     O      0.715300000000     0.775100000000     0.577300000000     0          
O844     O      0.814600000000     0.613460000000     0.558900000000     0          
O845     O      0.868100000000     0.637410000000     0.604300000000     0          
O846     O      0.692100000000     0.600200000000     0.283200000000     0          
O847     O      0.690400000000     0.637400000000     0.280100000000     0          
O848     O      0.838200000000     0.604140000000     0.901400000000     0          
O849     O      0.797000000000     0.630680000000     0.938500000000     0          
O850     O      0.653200000000     0.584510000000     0.832800000000     0          
O851     O      0.686400000000     0.589280000000     0.939700000000     0          
O852     O      0.361600000000     0.585580000000     0.798400000000     0          
O853     O      0.315100000000     0.587810000000     0.895600000000     0          
O854     O      0.711300000000     0.620180000000     0.537100000000     0          
O855     O      0.687900000000     0.651230000000     0.570300000000     0          
O856     O      0.627000000000     0.620730000000     0.866400000000     0          
O857     O      0.691200000000     0.639230000000     0.924000000000     0          
O858     O      0.824100000000     0.572760000000     0.729100000000     0          
O859     O      0.788100000000     0.580430000000     0.615600000000     0          
C860     C      0.841000000000     0.688800000000     0.687200000000     0          
C861     C      0.883400000000     0.703500000000     0.650900000000     0          
C862     C      0.891100000000     0.721200000000     0.675900000000     0          
H863     H      0.872180000000     0.725460000000     0.714610000000     0          
C864     C      0.927600000000     0.733300000000     0.643900000000     0          
H865     H      0.938170000000     0.745260000000     0.664150000000     0          
C866     C      0.949700000000     0.727200000000     0.577500000000     0          
C867     C      0.938200000000     0.709100000000     0.548800000000     0          
H868     H      0.952940000000     0.705140000000     0.506750000000     0          
C869     C      0.902700000000     0.696700000000     0.586700000000     0          
H870     H      0.892380000000     0.684340000000     0.569420000000     0          
C871     C      0.985000000000     0.741200000000     0.540800000000     0          
C872     C      0.966200000000     0.759300000000     0.517200000000     0          
C873     C      0.999500000000     0.771000000000     0.478900000000     0          
C874     C      0.049700000000     0.765100000000     0.461800000000     0          
C875     C      0.068400000000     0.747200000000     0.484500000000     0          
C876     C      0.036800000000     0.735000000000     0.524000000000     0          
C877     C      0.866400000000     0.757900000000     0.512700000000     0          
H878     H      0.870420000000     0.747480000000     0.481550000000     0          
C879     C      0.912100000000     0.767100000000     0.541000000000     0          
C880     C      0.906200000000     0.782300000000     0.586600000000     0          
H881     H      0.937400000000     0.788590000000     0.605970000000     0          
C882     C      0.854500000000     0.788300000000     0.604000000000     0          
H883     H      0.850500000000     0.798680000000     0.635150000000     0          
C884     C      0.808800000000     0.779100000000     0.575700000000     0          
C885     C      0.814800000000     0.763900000000     0.530100000000     0          
H886     H      0.783520000000     0.757570000000     0.510730000000     0          
C887     C      0.763000000000     0.784600000000     0.621000000000     0          
C888     C      0.978000000000     0.789700000000     0.457600000000     0          
C889     C      0.938200000000     0.790200000000     0.404400000000     0          
H890     H      0.925010000000     0.778670000000     0.383530000000     0          
C891     C      0.918100000000     0.808600000000     0.382800000000     0          
H892     H      0.890600000000     0.809380000000     0.347530000000     0          
C893     C      0.939000000000     0.825700000000     0.413600000000     0          
C894     C      0.977400000000     0.825500000000     0.465100000000     0          
H895     H      0.989810000000     0.836910000000     0.487560000000     0          
C896     C      0.998300000000     0.806400000000     0.483200000000     0          
H897     H      0.028210000000     0.805660000000     0.515170000000     0          
C898     C      0.913900000000     0.845200000000     0.389700000000     0          
C899     C      0.082500000000     0.778100000000     0.423700000000     0          
C900     C      0.069200000000     0.782300000000     0.352300000000     0          
H901     H      0.039620000000     0.776180000000     0.328440000000     0          
C902     C      0.102800000000     0.796200000000     0.319400000000     0          
H903     H      0.093420000000     0.799890000000     0.273650000000     0          
C904     C      0.150500000000     0.804800000000     0.352900000000     0          
C905     C      0.160300000000     0.801600000000     0.422700000000     0          
H906     H      0.188010000000     0.808770000000     0.446540000000     0          
C907     C      0.128700000000     0.787400000000     0.459700000000     0          
H908     H      0.137820000000     0.784350000000     0.506040000000     0          
C909     C      0.182000000000     0.821300000000     0.328400000000     0          
C910     C      0.126200000000     0.735300000000     0.392100000000     0          
H911     H      0.095210000000     0.736790000000     0.362100000000     0          
C912     C      0.123300000000     0.740300000000     0.460700000000     0          
C913     C      0.168600000000     0.738100000000     0.504500000000     0          
H914     H      0.166670000000     0.741520000000     0.551430000000     0          
C915     C      0.216800000000     0.730800000000     0.479800000000     0          
H916     H      0.247740000000     0.729330000000     0.509720000000     0          
C917     C      0.219600000000     0.725800000000     0.411100000000     0          
C918     C      0.174300000000     0.728000000000     0.367300000000     0          
H919     H      0.176270000000     0.724600000000     0.320390000000     0          
C920     C      0.271700000000     0.716100000000     0.387000000000     0          
C921     C      0.061500000000     0.718100000000     0.558800000000     0          
C922     C      0.062700000000     0.716100000000     0.628400000000     0          
H923     H      0.047170000000     0.725720000000     0.656250000000     0          
C924     C      0.086600000000     0.699900000000     0.658000000000     0          
H925     H      0.087640000000     0.698730000000     0.706490000000     0          
C926     C      0.109700000000     0.684900000000     0.618400000000     0          
C927     C      0.108500000000     0.686500000000     0.550400000000     0          
H928     H      0.124960000000     0.677040000000     0.522730000000     0          
C929     C      0.082000000000     0.702700000000     0.520500000000     0          
H930     H      0.077820000000     0.703250000000     0.472050000000     0          
C931     C      0.143700000000     0.668810000000     0.653300000000     0          
C932     C      0.853900000000     0.624700000000     0.557700000000     0          
C933     C      0.890400000000     0.623600000000     0.497300000000     0          
C934     C      0.885300000000     0.607200000000     0.456600000000     0          
H935     H      0.860550000000     0.597270000000     0.468080000000     0          
C936     C      0.915500000000     0.605400000000     0.400700000000     0          
H937     H      0.913970000000     0.593860000000     0.374250000000     0          
C938     C      0.948300000000     0.620400000000     0.382400000000     0          
C939     C      0.955100000000     0.637900000000     0.422700000000     0          
H940     H      0.978510000000     0.648010000000     0.409290000000     0          
C941     C      0.925600000000     0.639100000000     0.482000000000     0          
H942     H      0.928880000000     0.650040000000     0.511300000000     0          
C943     C      0.976000000000     0.620000000000     0.312100000000     0          
C944     C      0.942300000000     0.619600000000     0.253800000000     0          
C945     C      0.967400000000     0.618900000000     0.190800000000     0          
C946     C      0.932500000000     0.619200000000     0.124800000000     0          
C947     C      0.899100000000     0.634600000000     0.108500000000     0          
H948     H      0.898870000000     0.645710000000     0.136850000000     0          
C949     C      0.865400000000     0.633400000000     0.049300000000     0          
H950     H      0.841640000000     0.643910000000     0.038260000000     0          
C951     C      0.865700000000     0.617900000000     0.007300000000     0          
C952     C      0.900400000000     0.603200000000     0.025200000000     0          
H953     H      0.901460000000     0.592250000000     0.995860000000     0          
C954     C      0.934200000000     0.603200000000     0.083500000000     0          
H955     H      0.957610000000     0.592590000000     0.094260000000     0          
C956     C      0.832300000000     0.617200000000     0.944800000000     0          
C957     C      0.770800000000     0.620100000000     0.268000000000     0          
C958     C      0.796900000000     0.603500000000     0.246500000000     0          
H959     H      0.776440000000     0.592170000000     0.235540000000     0          
C960     C      0.853100000000     0.603400000000     0.241100000000     0          
H961     H      0.870970000000     0.592000000000     0.226430000000     0          
C962     C      0.883100000000     0.619900000000     0.257200000000     0          
C963     C      0.856900000000     0.636500000000     0.278700000000     0          
H964     H      0.877410000000     0.647780000000     0.289720000000     0          
C965     C      0.800800000000     0.636600000000     0.284100000000     0          
H966     H      0.782880000000     0.647950000000     0.298840000000     0          
C967     C      0.703300000000     0.618600000000     0.277900000000     0          
C968     C      0.695100000000     0.638600000000     0.526000000000     0          
C969     C      0.686400000000     0.643600000000     0.449300000000     0          
C970     C      0.810600000000     0.569500000000     0.656700000000     0          
C971     C      0.827700000000     0.549700000000     0.627500000000     0          
C972     C      0.645400000000     0.631800000000     0.917000000000     0          
C973     C      0.602000000000     0.635300000000     0.969800000000     0          
C974     C      0.657900000000     0.580320000000     0.895200000000     0          
C975     C      0.624400000000     0.564410000000     0.918600000000     0          
C976     C      0.603100000000     0.552220000000     0.872900000000     0          
H977     H      0.608900000000     0.554610000000     0.825910000000     0          
C978     C      0.572100000000     0.535710000000     0.890600000000     0          
H979     H      0.558240000000     0.527000000000     0.856630000000     0          
C980     C      0.562900000000     0.532900000000     0.959500000000     0          
C981     C      0.584300000000     0.545200000000     0.007600000000     0          
H982     H      0.578180000000     0.543120000000     0.054720000000     0          
C983     C      0.616100000000     0.561300000000     0.986800000000     0          
H984     H      0.631570000000     0.569870000000     0.020160000000     0          
C985     C      0.529700000000     0.516280000000     0.981100000000     0          
C986     C      0.473500000000     0.515830000000     0.968900000000     0          
C987     C      0.444200000000     0.499790000000     0.987200000000     0          
C988     C      0.444500000000     0.533390000000     0.939200000000     0          
C989     C      0.438400000000     0.535590000000     0.869800000000     0          
H990     H      0.454040000000     0.526610000000     0.839440000000     0          
C991     C      0.408800000000     0.551350000000     0.845000000000     0          
H992     H      0.405670000000     0.553340000000     0.796960000000     0          
C993     C      0.383900000000     0.564070000000     0.887100000000     0          
C994     C      0.388700000000     0.560970000000     0.955200000000     0          
H995     H      0.370550000000     0.569350000000     0.985290000000     0          
C996     C      0.419400000000     0.545930000000     0.982000000000     0          
H997     H      0.423040000000     0.544270000000     0.030220000000     0          
C998     C      0.350600000000     0.580320000000     0.860200000000     0          
C999     C      0.273100000000     0.500530000000     0.944200000000     0          
C1000    C      0.293300000000     0.504430000000     0.010100000000     0          
H1001    H      0.269010000000     0.507420000000     0.045270000000     0          
C1002    C      0.349000000000     0.503970000000     0.024500000000     0          
H1003    H      0.362790000000     0.506640000000     0.069500000000     0          
C1004    C      0.384500000000     0.499600000000     0.973000000000     0          
C1005    C      0.364300000000     0.495700000000     0.907100000000     0          
H1006    H      0.388570000000     0.492710000000     0.871930000000     0          
C1007    C      0.308600000000     0.496160000000     0.892700000000     0          
H1008    H      0.294790000000     0.493490000000     0.847700000000     0          
O1009    O      0.200100000000     0.495900000000     0.865200000000     0          
O1010    O      0.180700000000     0.503700000000     0.976300000000     0          
C1011    C      0.193400000000     0.499300000000     0.922800000000     0          
H1012    H      0.655020000000     0.633340000000     0.424970000000     0          
H1013    H      0.671260000000     0.659120000000     0.443930000000     0          
H1014    H      0.726510000000     0.642020000000     0.422450000000     0          
H1015    H      0.856740000000     0.552070000000     0.584160000000     0          
H1016    H      0.848860000000     0.540810000000     0.669730000000     0          
H1017    H      0.790100000000     0.541640000000     0.607110000000     0          
H1018    H      0.616490000000     0.629130000000     0.021370000000     0          
H1019    H      0.594640000000     0.651490000000     0.975080000000     0          
H1020    H      0.562560000000     0.627880000000     0.952260000000     0          
Zr1021   Zr     0.337260000000     0.142950000000     0.709120000000     0          
Zr1022   Zr     0.253030000000     0.143120000000     0.849100000000     0          
Zr1023   Zr     0.197420000000     0.152260000000     0.685240000000     0          
Zr1024   Zr     0.307210000000     0.099470000000     0.794110000000     0          
Zr1025   Zr     0.167360000000     0.109010000000     0.771620000000     0          
Zr1026   Zr     0.251030000000     0.108400000000     0.630190000000     0          
O1027    O      0.169800000000     0.121980000000     0.664400000000     0          
O1028    O      0.192300000000     0.137510000000     0.776300000000     0          
O1029    O      0.265100000000     0.136330000000     0.657800000000     0          
O1030    O      0.239200000000     0.099380000000     0.729400000000     0          
O1031    O      0.235300000000     0.110700000000     0.848800000000     0          
O1032    O      0.268100000000     0.160160000000     0.749800000000     0          
O1033    O      0.332600000000     0.110340000000     0.694000000000     0          
O1034    O      0.314700000000     0.129080000000     0.797200000000     0          
O1035    O      0.220100000000     0.179430000000     0.635000000000     0          
O1036    O      0.349300000000     0.170100000000     0.660400000000     0          
O1037    O      0.307600000000     0.196000000000     0.731600000000     0          
O1038    O      0.624700000000     0.162330000000     0.709600000000     0          
O1039    O      0.682100000000     0.163260000000     0.622100000000     0          
O1040    O      0.815000000000     0.224000000000     0.418000000000     0          
O1041    O      0.757600000000     0.205400000000     0.333100000000     0          
O1042    O      0.714300000000     0.329280000000     0.359700000000     0          
O1043    O      0.668500000000     0.323760000000     0.260600000000     0          
O1044    O      0.430200000000     0.360790000000     0.425000000000     0          
O1045    O      0.386500000000     0.343910000000     0.336500000000     0          
O1046    O      0.253500000000     0.301300000000     0.638000000000     0          
O1047    O      0.215300000000     0.275100000000     0.577300000000     0          
O1048    O      0.314600000000     0.113460000000     0.558900000000     0          
O1049    O      0.368100000000     0.137410000000     0.604300000000     0          
O1050    O      0.192100000000     0.100200000000     0.283200000000     0          
O1051    O      0.190400000000     0.137400000000     0.280100000000     0          
O1052    O      0.338200000000     0.104140000000     0.901400000000     0          
O1053    O      0.297000000000     0.130680000000     0.938500000000     0          
O1054    O      0.153200000000     0.084510000000     0.832800000000     0          
O1055    O      0.186400000000     0.089280000000     0.939700000000     0          
O1056    O      0.861600000000     0.085580000000     0.798400000000     0          
O1057    O      0.815100000000     0.087810000000     0.895600000000     0          
O1058    O      0.211300000000     0.120180000000     0.537100000000     0          
O1059    O      0.187900000000     0.151230000000     0.570300000000     0          
O1060    O      0.127000000000     0.120730000000     0.866400000000     0          
O1061    O      0.191200000000     0.139230000000     0.924000000000     0          
O1062    O      0.324100000000     0.072760000000     0.729100000000     0          
O1063    O      0.288100000000     0.080430000000     0.615600000000     0          
C1064    C      0.341000000000     0.188800000000     0.687200000000     0          
C1065    C      0.383400000000     0.203500000000     0.650900000000     0          
C1066    C      0.391100000000     0.221200000000     0.675900000000     0          
H1067    H      0.372180000000     0.225460000000     0.714610000000     0          
C1068    C      0.427600000000     0.233300000000     0.643900000000     0          
H1069    H      0.438170000000     0.245260000000     0.664150000000     0          
C1070    C      0.449700000000     0.227200000000     0.577500000000     0          
C1071    C      0.438200000000     0.209100000000     0.548800000000     0          
H1072    H      0.452940000000     0.205140000000     0.506750000000     0          
C1073    C      0.402700000000     0.196700000000     0.586700000000     0          
H1074    H      0.392380000000     0.184340000000     0.569420000000     0          
C1075    C      0.485000000000     0.241200000000     0.540800000000     0          
C1076    C      0.466200000000     0.259300000000     0.517200000000     0          
C1077    C      0.499500000000     0.271000000000     0.478900000000     0          
C1078    C      0.549700000000     0.265100000000     0.461800000000     0          
C1079    C      0.568400000000     0.247200000000     0.484500000000     0          
C1080    C      0.536800000000     0.235000000000     0.524000000000     0          
C1081    C      0.366400000000     0.257900000000     0.512700000000     0          
H1082    H      0.370420000000     0.247480000000     0.481550000000     0          
C1083    C      0.412100000000     0.267100000000     0.541000000000     0          
C1084    C      0.406200000000     0.282300000000     0.586600000000     0          
H1085    H      0.437400000000     0.288590000000     0.605970000000     0          
C1086    C      0.354500000000     0.288300000000     0.604000000000     0          
H1087    H      0.350500000000     0.298680000000     0.635150000000     0          
C1088    C      0.308800000000     0.279100000000     0.575700000000     0          
C1089    C      0.314800000000     0.263900000000     0.530100000000     0          
H1090    H      0.283520000000     0.257570000000     0.510730000000     0          
C1091    C      0.263000000000     0.284600000000     0.621000000000     0          
C1092    C      0.478000000000     0.289700000000     0.457600000000     0          
C1093    C      0.438200000000     0.290200000000     0.404400000000     0          
H1094    H      0.425010000000     0.278670000000     0.383530000000     0          
C1095    C      0.418100000000     0.308600000000     0.382800000000     0          
H1096    H      0.390600000000     0.309380000000     0.347530000000     0          
C1097    C      0.439000000000     0.325700000000     0.413600000000     0          
C1098    C      0.477400000000     0.325500000000     0.465100000000     0          
H1099    H      0.489810000000     0.336910000000     0.487560000000     0          
C1100    C      0.498300000000     0.306400000000     0.483200000000     0          
H1101    H      0.528210000000     0.305660000000     0.515170000000     0          
C1102    C      0.413900000000     0.345200000000     0.389700000000     0          
C1103    C      0.582500000000     0.278100000000     0.423700000000     0          
C1104    C      0.569200000000     0.282300000000     0.352300000000     0          
H1105    H      0.539620000000     0.276180000000     0.328440000000     0          
C1106    C      0.602800000000     0.296200000000     0.319400000000     0          
H1107    H      0.593420000000     0.299890000000     0.273650000000     0          
C1108    C      0.650500000000     0.304800000000     0.352900000000     0          
C1109    C      0.660300000000     0.301600000000     0.422700000000     0          
H1110    H      0.688010000000     0.308770000000     0.446540000000     0          
C1111    C      0.628700000000     0.287400000000     0.459700000000     0          
H1112    H      0.637820000000     0.284350000000     0.506040000000     0          
C1113    C      0.682000000000     0.321300000000     0.328400000000     0          
C1114    C      0.626200000000     0.235300000000     0.392100000000     0          
H1115    H      0.595210000000     0.236790000000     0.362100000000     0          
C1116    C      0.623300000000     0.240300000000     0.460700000000     0          
C1117    C      0.668600000000     0.238100000000     0.504500000000     0          
H1118    H      0.666670000000     0.241520000000     0.551430000000     0          
C1119    C      0.716800000000     0.230800000000     0.479800000000     0          
H1120    H      0.747740000000     0.229330000000     0.509720000000     0          
C1121    C      0.719600000000     0.225800000000     0.411100000000     0          
C1122    C      0.674300000000     0.228000000000     0.367300000000     0          
H1123    H      0.676270000000     0.224600000000     0.320390000000     0          
C1124    C      0.771700000000     0.216100000000     0.387000000000     0          
C1125    C      0.561500000000     0.218100000000     0.558800000000     0          
C1126    C      0.562700000000     0.216100000000     0.628400000000     0          
H1127    H      0.547170000000     0.225720000000     0.656250000000     0          
C1128    C      0.586600000000     0.199900000000     0.658000000000     0          
H1129    H      0.587640000000     0.198730000000     0.706490000000     0          
C1130    C      0.609700000000     0.184900000000     0.618400000000     0          
C1131    C      0.608500000000     0.186500000000     0.550400000000     0          
H1132    H      0.624960000000     0.177040000000     0.522730000000     0          
C1133    C      0.582000000000     0.202700000000     0.520500000000     0          
H1134    H      0.577820000000     0.203250000000     0.472050000000     0          
C1135    C      0.643700000000     0.168810000000     0.653300000000     0          
C1136    C      0.353900000000     0.124700000000     0.557700000000     0          
C1137    C      0.390400000000     0.123600000000     0.497300000000     0          
C1138    C      0.385300000000     0.107200000000     0.456600000000     0          
H1139    H      0.360550000000     0.097270000000     0.468080000000     0          
C1140    C      0.415500000000     0.105400000000     0.400700000000     0          
H1141    H      0.413970000000     0.093860000000     0.374250000000     0          
C1142    C      0.448300000000     0.120400000000     0.382400000000     0          
C1143    C      0.455100000000     0.137900000000     0.422700000000     0          
H1144    H      0.478510000000     0.148010000000     0.409290000000     0          
C1145    C      0.425600000000     0.139100000000     0.482000000000     0          
H1146    H      0.428880000000     0.150040000000     0.511300000000     0          
C1147    C      0.476000000000     0.120000000000     0.312100000000     0          
C1148    C      0.442300000000     0.119600000000     0.253800000000     0          
C1149    C      0.467400000000     0.118900000000     0.190800000000     0          
C1150    C      0.432500000000     0.119200000000     0.124800000000     0          
C1151    C      0.399100000000     0.134600000000     0.108500000000     0          
H1152    H      0.398870000000     0.145710000000     0.136850000000     0          
C1153    C      0.365400000000     0.133400000000     0.049300000000     0          
H1154    H      0.341640000000     0.143910000000     0.038260000000     0          
C1155    C      0.365700000000     0.117900000000     0.007300000000     0          
C1156    C      0.400400000000     0.103200000000     0.025200000000     0          
H1157    H      0.401460000000     0.092250000000     0.995860000000     0          
C1158    C      0.434200000000     0.103200000000     0.083500000000     0          
H1159    H      0.457610000000     0.092590000000     0.094260000000     0          
C1160    C      0.332300000000     0.117200000000     0.944800000000     0          
C1161    C      0.270800000000     0.120100000000     0.268000000000     0          
C1162    C      0.296900000000     0.103500000000     0.246500000000     0          
H1163    H      0.276440000000     0.092170000000     0.235540000000     0          
C1164    C      0.353100000000     0.103400000000     0.241100000000     0          
H1165    H      0.370970000000     0.092000000000     0.226430000000     0          
C1166    C      0.383100000000     0.119900000000     0.257200000000     0          
C1167    C      0.356900000000     0.136500000000     0.278700000000     0          
H1168    H      0.377410000000     0.147780000000     0.289720000000     0          
C1169    C      0.300800000000     0.136600000000     0.284100000000     0          
H1170    H      0.282880000000     0.147950000000     0.298840000000     0          
C1171    C      0.203300000000     0.118600000000     0.277900000000     0          
C1172    C      0.195100000000     0.138600000000     0.526000000000     0          
C1173    C      0.186400000000     0.143600000000     0.449300000000     0          
C1174    C      0.310600000000     0.069500000000     0.656700000000     0          
C1175    C      0.327700000000     0.049700000000     0.627500000000     0          
C1176    C      0.145400000000     0.131800000000     0.917000000000     0          
C1177    C      0.102000000000     0.135300000000     0.969800000000     0          
C1178    C      0.157900000000     0.080320000000     0.895200000000     0          
C1179    C      0.124400000000     0.064410000000     0.918600000000     0          
C1180    C      0.103100000000     0.052220000000     0.872900000000     0          
H1181    H      0.108900000000     0.054610000000     0.825910000000     0          
C1182    C      0.072100000000     0.035710000000     0.890600000000     0          
H1183    H      0.058240000000     0.027000000000     0.856630000000     0          
C1184    C      0.062900000000     0.032900000000     0.959500000000     0          
C1185    C      0.084300000000     0.045200000000     0.007600000000     0          
H1186    H      0.078180000000     0.043120000000     0.054720000000     0          
C1187    C      0.116100000000     0.061300000000     0.986800000000     0          
H1188    H      0.131570000000     0.069870000000     0.020160000000     0          
C1189    C      0.029700000000     0.016280000000     0.981100000000     0          
C1190    C      0.973500000000     0.015830000000     0.968900000000     0          
C1191    C      0.944200000000     0.999790000000     0.987200000000     0          
C1192    C      0.944500000000     0.033390000000     0.939200000000     0          
C1193    C      0.938400000000     0.035590000000     0.869800000000     0          
H1194    H      0.954040000000     0.026610000000     0.839440000000     0          
C1195    C      0.908800000000     0.051350000000     0.845000000000     0          
H1196    H      0.905670000000     0.053340000000     0.796960000000     0          
C1197    C      0.883900000000     0.064070000000     0.887100000000     0          
C1198    C      0.888700000000     0.060970000000     0.955200000000     0          
H1199    H      0.870550000000     0.069350000000     0.985290000000     0          
C1200    C      0.919400000000     0.045930000000     0.982000000000     0          
H1201    H      0.923040000000     0.044270000000     0.030220000000     0          
C1202    C      0.850600000000     0.080320000000     0.860200000000     0          
C1203    C      0.773100000000     0.000530000000     0.944200000000     0          
C1204    C      0.793300000000     0.004430000000     0.010100000000     0          
H1205    H      0.769010000000     0.007420000000     0.045270000000     0          
C1206    C      0.849000000000     0.003970000000     0.024500000000     0          
H1207    H      0.862790000000     0.006640000000     0.069500000000     0          
C1208    C      0.884500000000     0.999600000000     0.973000000000     0          
C1209    C      0.864300000000     0.995700000000     0.907100000000     0          
H1210    H      0.888570000000     0.992710000000     0.871930000000     0          
C1211    C      0.808600000000     0.996160000000     0.892700000000     0          
H1212    H      0.794790000000     0.993490000000     0.847700000000     0          
O1213    O      0.700100000000     0.995900000000     0.865200000000     0          
O1214    O      0.680700000000     0.003700000000     0.976300000000     0          
C1215    C      0.693400000000     0.999300000000     0.922800000000     0          
H1216    H      0.155020000000     0.133340000000     0.424970000000     0          
H1217    H      0.171260000000     0.159120000000     0.443930000000     0          
H1218    H      0.226510000000     0.142020000000     0.422450000000     0          
H1219    H      0.356740000000     0.052070000000     0.584160000000     0          
H1220    H      0.348860000000     0.040810000000     0.669730000000     0          
H1221    H      0.290100000000     0.041640000000     0.607110000000     0          
H1222    H      0.116490000000     0.129130000000     0.021370000000     0          
H1223    H      0.094640000000     0.151490000000     0.975080000000     0          
H1224    H      0.062560000000     0.127880000000     0.952260000000     0          
Zr1225   Zr     0.162740000000     0.642950000000     0.790880000000     0          
Zr1226   Zr     0.246970000000     0.643120000000     0.650900000000     0          
Zr1227   Zr     0.302580000000     0.652260000000     0.814760000000     0          
Zr1228   Zr     0.192790000000     0.599470000000     0.705890000000     0          
Zr1229   Zr     0.332640000000     0.609010000000     0.728380000000     0          
Zr1230   Zr     0.248970000000     0.608400000000     0.869810000000     0          
O1231    O      0.330200000000     0.621980000000     0.835600000000     0          
O1232    O      0.307700000000     0.637510000000     0.723700000000     0          
O1233    O      0.234900000000     0.636330000000     0.842200000000     0          
O1234    O      0.260800000000     0.599380000000     0.770600000000     0          
O1235    O      0.264700000000     0.610700000000     0.651200000000     0          
O1236    O      0.231900000000     0.660160000000     0.750200000000     0          
O1237    O      0.167400000000     0.610340000000     0.806000000000     0          
O1238    O      0.185300000000     0.629080000000     0.702800000000     0          
O1239    O      0.279900000000     0.679430000000     0.865000000000     0          
O1240    O      0.150700000000     0.670100000000     0.839600000000     0          
O1241    O      0.192400000000     0.696000000000     0.768400000000     0          
O1242    O      0.875300000000     0.662330000000     0.790400000000     0          
O1243    O      0.817900000000     0.663260000000     0.877900000000     0          
O1244    O      0.685000000000     0.724000000000     0.082000000000     0          
O1245    O      0.742400000000     0.705400000000     0.166900000000     0          
O1246    O      0.785700000000     0.829280000000     0.140300000000     0          
O1247    O      0.831500000000     0.823760000000     0.239400000000     0          
O1248    O      0.069800000000     0.860790000000     0.075000000000     0          
O1249    O      0.113500000000     0.843910000000     0.163500000000     0          
O1250    O      0.246500000000     0.801300000000     0.862000000000     0          
O1251    O      0.284700000000     0.775100000000     0.922700000000     0          
O1252    O      0.185400000000     0.613460000000     0.941100000000     0          
O1253    O      0.131900000000     0.637410000000     0.895700000000     0          
O1254    O      0.307900000000     0.600200000000     0.216800000000     0          
O1255    O      0.309600000000     0.637400000000     0.219900000000     0          
O1256    O      0.161800000000     0.604140000000     0.598600000000     0          
O1257    O      0.203000000000     0.630680000000     0.561500000000     0          
O1258    O      0.346800000000     0.584510000000     0.667200000000     0          
O1259    O      0.313600000000     0.589280000000     0.560300000000     0          
O1260    O      0.638400000000     0.585580000000     0.701600000000     0          
O1261    O      0.684900000000     0.587810000000     0.604400000000     0          
O1262    O      0.288700000000     0.620180000000     0.962900000000     0          
O1263    O      0.312100000000     0.651230000000     0.929700000000     0          
O1264    O      0.373000000000     0.620730000000     0.633600000000     0          
O1265    O      0.308800000000     0.639230000000     0.576000000000     0          
O1266    O      0.175900000000     0.572760000000     0.770900000000     0          
O1267    O      0.211900000000     0.580430000000     0.884400000000     0          
C1268    C      0.159000000000     0.688800000000     0.812800000000     0          
C1269    C      0.116600000000     0.703500000000     0.849100000000     0          
C1270    C      0.108900000000     0.721200000000     0.824100000000     0          
H1271    H      0.127820000000     0.725460000000     0.785390000000     0          
C1272    C      0.072400000000     0.733300000000     0.856100000000     0          
H1273    H      0.061830000000     0.745260000000     0.835850000000     0          
C1274    C      0.050300000000     0.727200000000     0.922500000000     0          
C1275    C      0.061800000000     0.709100000000     0.951200000000     0          
H1276    H      0.047060000000     0.705140000000     0.993250000000     0          
C1277    C      0.097300000000     0.696700000000     0.913300000000     0          
H1278    H      0.107620000000     0.684340000000     0.930580000000     0          
C1279    C      0.015000000000     0.741200000000     0.959200000000     0          
C1280    C      0.033800000000     0.759300000000     0.982800000000     0          
C1281    C      0.000500000000     0.771000000000     0.021100000000     0          
C1282    C      0.950300000000     0.765100000000     0.038200000000     0          
C1283    C      0.931600000000     0.747200000000     0.015500000000     0          
C1284    C      0.963200000000     0.735000000000     0.976000000000     0          
C1285    C      0.133600000000     0.757900000000     0.987300000000     0          
H1286    H      0.129580000000     0.747480000000     0.018450000000     0          
C1287    C      0.087900000000     0.767100000000     0.959000000000     0          
C1288    C      0.093800000000     0.782300000000     0.913400000000     0          
H1289    H      0.062600000000     0.788590000000     0.894030000000     0          
C1290    C      0.145500000000     0.788300000000     0.896000000000     0          
H1291    H      0.149500000000     0.798680000000     0.864850000000     0          
C1292    C      0.191200000000     0.779100000000     0.924300000000     0          
C1293    C      0.185200000000     0.763900000000     0.969900000000     0          
H1294    H      0.216480000000     0.757570000000     0.989270000000     0          
C1295    C      0.237000000000     0.784600000000     0.879000000000     0          
C1296    C      0.022000000000     0.789700000000     0.042400000000     0          
C1297    C      0.061800000000     0.790200000000     0.095600000000     0          
H1298    H      0.074990000000     0.778670000000     0.116470000000     0          
C1299    C      0.081900000000     0.808600000000     0.117200000000     0          
H1300    H      0.109400000000     0.809380000000     0.152470000000     0          
C1301    C      0.061000000000     0.825700000000     0.086400000000     0          
C1302    C      0.022600000000     0.825500000000     0.034900000000     0          
H1303    H      0.010190000000     0.836910000000     0.012440000000     0          
C1304    C      0.001700000000     0.806400000000     0.016800000000     0          
H1305    H      0.971790000000     0.805660000000     0.984830000000     0          
C1306    C      0.086100000000     0.845200000000     0.110300000000     0          
C1307    C      0.917500000000     0.778100000000     0.076300000000     0          
C1308    C      0.930800000000     0.782300000000     0.147700000000     0          
H1309    H      0.960380000000     0.776180000000     0.171560000000     0          
C1310    C      0.897200000000     0.796200000000     0.180600000000     0          
H1311    H      0.906580000000     0.799890000000     0.226350000000     0          
C1312    C      0.849500000000     0.804800000000     0.147100000000     0          
C1313    C      0.839700000000     0.801600000000     0.077300000000     0          
H1314    H      0.811990000000     0.808770000000     0.053460000000     0          
C1315    C      0.871300000000     0.787400000000     0.040300000000     0          
H1316    H      0.862180000000     0.784350000000     0.993960000000     0          
C1317    C      0.818000000000     0.821300000000     0.171600000000     0          
C1318    C      0.873800000000     0.735300000000     0.107900000000     0          
H1319    H      0.904790000000     0.736790000000     0.137900000000     0          
C1320    C      0.876700000000     0.740300000000     0.039300000000     0          
C1321    C      0.831400000000     0.738100000000     0.995500000000     0          
H1322    H      0.833330000000     0.741520000000     0.948570000000     0          
C1323    C      0.783200000000     0.730800000000     0.020200000000     0          
H1324    H      0.752260000000     0.729330000000     0.990280000000     0          
C1325    C      0.780400000000     0.725800000000     0.088900000000     0          
C1326    C      0.825700000000     0.728000000000     0.132700000000     0          
H1327    H      0.823730000000     0.724600000000     0.179610000000     0          
C1328    C      0.728300000000     0.716100000000     0.113000000000     0          
C1329    C      0.938500000000     0.718100000000     0.941200000000     0          
C1330    C      0.937300000000     0.716100000000     0.871600000000     0          
H1331    H      0.952830000000     0.725720000000     0.843750000000     0          
C1332    C      0.913400000000     0.699900000000     0.842000000000     0          
H1333    H      0.912360000000     0.698730000000     0.793510000000     0          
C1334    C      0.890300000000     0.684900000000     0.881600000000     0          
C1335    C      0.891500000000     0.686500000000     0.949600000000     0          
H1336    H      0.875040000000     0.677040000000     0.977270000000     0          
C1337    C      0.918000000000     0.702700000000     0.979500000000     0          
H1338    H      0.922180000000     0.703250000000     0.027950000000     0          
C1339    C      0.856300000000     0.668810000000     0.846700000000     0          
C1340    C      0.146100000000     0.624700000000     0.942300000000     0          
C1341    C      0.109600000000     0.623600000000     0.002700000000     0          
C1342    C      0.114700000000     0.607200000000     0.043400000000     0          
H1343    H      0.139450000000     0.597270000000     0.031920000000     0          
C1344    C      0.084500000000     0.605400000000     0.099300000000     0          
H1345    H      0.086030000000     0.593860000000     0.125750000000     0          
C1346    C      0.051700000000     0.620400000000     0.117600000000     0          
C1347    C      0.044900000000     0.637900000000     0.077300000000     0          
H1348    H      0.021490000000     0.648010000000     0.090710000000     0          
C1349    C      0.074400000000     0.639100000000     0.018000000000     0          
H1350    H      0.071120000000     0.650040000000     0.988700000000     0          
C1351    C      0.024000000000     0.620000000000     0.187900000000     0          
C1352    C      0.057700000000     0.619600000000     0.246200000000     0          
C1353    C      0.032600000000     0.618900000000     0.309200000000     0          
C1354    C      0.067500000000     0.619200000000     0.375200000000     0          
C1355    C      0.100900000000     0.634600000000     0.391500000000     0          
H1356    H      0.101130000000     0.645710000000     0.363150000000     0          
C1357    C      0.134600000000     0.633400000000     0.450700000000     0          
H1358    H      0.158360000000     0.643910000000     0.461740000000     0          
C1359    C      0.134300000000     0.617900000000     0.492700000000     0          
C1360    C      0.099600000000     0.603200000000     0.474800000000     0          
H1361    H      0.098540000000     0.592250000000     0.504140000000     0          
C1362    C      0.065800000000     0.603200000000     0.416500000000     0          
H1363    H      0.042390000000     0.592590000000     0.405740000000     0          
C1364    C      0.167700000000     0.617200000000     0.555200000000     0          
C1365    C      0.229200000000     0.620100000000     0.232000000000     0          
C1366    C      0.203100000000     0.603500000000     0.253500000000     0          
H1367    H      0.223560000000     0.592170000000     0.264460000000     0          
C1368    C      0.146900000000     0.603400000000     0.258900000000     0          
H1369    H      0.129030000000     0.592000000000     0.273570000000     0          
C1370    C      0.116900000000     0.619900000000     0.242800000000     0          
C1371    C      0.143100000000     0.636500000000     0.221300000000     0          
H1372    H      0.122590000000     0.647780000000     0.210280000000     0          
C1373    C      0.199200000000     0.636600000000     0.215900000000     0          
H1374    H      0.217120000000     0.647950000000     0.201160000000     0          
C1375    C      0.296700000000     0.618600000000     0.222100000000     0          
C1376    C      0.304900000000     0.638600000000     0.974000000000     0          
C1377    C      0.313600000000     0.643600000000     0.050700000000     0          
C1378    C      0.189400000000     0.569500000000     0.843300000000     0          
C1379    C      0.172300000000     0.549700000000     0.872500000000     0          
C1380    C      0.354600000000     0.631800000000     0.583000000000     0          
C1381    C      0.398000000000     0.635300000000     0.530200000000     0          
C1382    C      0.342100000000     0.580320000000     0.604800000000     0          
C1383    C      0.375600000000     0.564410000000     0.581400000000     0          
C1384    C      0.396900000000     0.552220000000     0.627100000000     0          
H1385    H      0.391100000000     0.554610000000     0.674090000000     0          
C1386    C      0.427900000000     0.535710000000     0.609400000000     0          
H1387    H      0.441760000000     0.527000000000     0.643370000000     0          
C1388    C      0.437100000000     0.532900000000     0.540500000000     0          
C1389    C      0.415700000000     0.545200000000     0.492400000000     0          
H1390    H      0.421820000000     0.543120000000     0.445280000000     0          
C1391    C      0.383900000000     0.561300000000     0.513200000000     0          
H1392    H      0.368430000000     0.569870000000     0.479840000000     0          
C1393    C      0.470300000000     0.516280000000     0.518900000000     0          
C1394    C      0.526500000000     0.515830000000     0.531100000000     0          
C1395    C      0.555800000000     0.499790000000     0.512800000000     0          
C1396    C      0.555500000000     0.533390000000     0.560800000000     0          
C1397    C      0.561600000000     0.535590000000     0.630200000000     0          
H1398    H      0.545960000000     0.526610000000     0.660560000000     0          
C1399    C      0.591200000000     0.551350000000     0.655000000000     0          
H1400    H      0.594330000000     0.553340000000     0.703040000000     0          
C1401    C      0.616100000000     0.564070000000     0.612900000000     0          
C1402    C      0.611300000000     0.560970000000     0.544800000000     0          
H1403    H      0.629450000000     0.569350000000     0.514710000000     0          
C1404    C      0.580600000000     0.545930000000     0.518000000000     0          
H1405    H      0.576960000000     0.544270000000     0.469780000000     0          
C1406    C      0.649400000000     0.580320000000     0.639800000000     0          
C1407    C      0.726900000000     0.500530000000     0.555800000000     0          
C1408    C      0.706700000000     0.504430000000     0.489900000000     0          
H1409    H      0.730990000000     0.507420000000     0.454730000000     0          
C1410    C      0.651000000000     0.503970000000     0.475500000000     0          
H1411    H      0.637210000000     0.506640000000     0.430500000000     0          
C1412    C      0.615500000000     0.499600000000     0.527000000000     0          
C1413    C      0.635700000000     0.495700000000     0.592900000000     0          
H1414    H      0.611430000000     0.492710000000     0.628070000000     0          
C1415    C      0.691400000000     0.496160000000     0.607300000000     0          
H1416    H      0.705210000000     0.493490000000     0.652300000000     0          
O1417    O      0.799900000000     0.495900000000     0.634800000000     0          
O1418    O      0.819300000000     0.503700000000     0.523700000000     0          
C1419    C      0.806600000000     0.499300000000     0.577200000000     0          
H1420    H      0.344980000000     0.633340000000     0.075030000000     0          
H1421    H      0.328740000000     0.659120000000     0.056070000000     0          
H1422    H      0.273490000000     0.642020000000     0.077550000000     0          
H1423    H      0.143260000000     0.552070000000     0.915840000000     0          
H1424    H      0.151140000000     0.540810000000     0.830270000000     0          
H1425    H      0.209900000000     0.541640000000     0.892890000000     0          
H1426    H      0.383510000000     0.629130000000     0.478630000000     0          
H1427    H      0.405360000000     0.651490000000     0.524920000000     0          
H1428    H      0.437440000000     0.627880000000     0.547740000000     0          
Zr1429   Zr     0.662740000000     0.142950000000     0.790880000000     0          
Zr1430   Zr     0.746970000000     0.143120000000     0.650900000000     0          
Zr1431   Zr     0.802580000000     0.152260000000     0.814760000000     0          
Zr1432   Zr     0.692790000000     0.099470000000     0.705890000000     0          
Zr1433   Zr     0.832640000000     0.109010000000     0.728380000000     0          
Zr1434   Zr     0.748970000000     0.108400000000     0.869810000000     0          
O1435    O      0.830200000000     0.121980000000     0.835600000000     0          
O1436    O      0.807700000000     0.137510000000     0.723700000000     0          
O1437    O      0.734900000000     0.136330000000     0.842200000000     0          
O1438    O      0.760800000000     0.099380000000     0.770600000000     0          
O1439    O      0.764700000000     0.110700000000     0.651200000000     0          
O1440    O      0.731900000000     0.160160000000     0.750200000000     0          
O1441    O      0.667400000000     0.110340000000     0.806000000000     0          
O1442    O      0.685300000000     0.129080000000     0.702800000000     0          
O1443    O      0.779900000000     0.179430000000     0.865000000000     0          
O1444    O      0.650700000000     0.170100000000     0.839600000000     0          
O1445    O      0.692400000000     0.196000000000     0.768400000000     0          
O1446    O      0.375300000000     0.162330000000     0.790400000000     0          
O1447    O      0.317900000000     0.163260000000     0.877900000000     0          
O1448    O      0.185000000000     0.224000000000     0.082000000000     0          
O1449    O      0.242400000000     0.205400000000     0.166900000000     0          
O1450    O      0.285700000000     0.329280000000     0.140300000000     0          
O1451    O      0.331500000000     0.323760000000     0.239400000000     0          
O1452    O      0.569800000000     0.360790000000     0.075000000000     0          
O1453    O      0.613500000000     0.343910000000     0.163500000000     0          
O1454    O      0.746500000000     0.301300000000     0.862000000000     0          
O1455    O      0.784700000000     0.275100000000     0.922700000000     0          
O1456    O      0.685400000000     0.113460000000     0.941100000000     0          
O1457    O      0.631900000000     0.137410000000     0.895700000000     0          
O1458    O      0.807900000000     0.100200000000     0.216800000000     0          
O1459    O      0.809600000000     0.137400000000     0.219900000000     0          
O1460    O      0.661800000000     0.104140000000     0.598600000000     0          
O1461    O      0.703000000000     0.130680000000     0.561500000000     0          
O1462    O      0.846800000000     0.084510000000     0.667200000000     0          
O1463    O      0.813600000000     0.089280000000     0.560300000000     0          
O1464    O      0.138400000000     0.085580000000     0.701600000000     0          
O1465    O      0.184900000000     0.087810000000     0.604400000000     0          
O1466    O      0.788700000000     0.120180000000     0.962900000000     0          
O1467    O      0.812100000000     0.151230000000     0.929700000000     0          
O1468    O      0.873000000000     0.120730000000     0.633600000000     0          
O1469    O      0.808800000000     0.139230000000     0.576000000000     0          
O1470    O      0.675900000000     0.072760000000     0.770900000000     0          
O1471    O      0.711900000000     0.080430000000     0.884400000000     0          
C1472    C      0.659000000000     0.188800000000     0.812800000000     0          
C1473    C      0.616600000000     0.203500000000     0.849100000000     0          
C1474    C      0.608900000000     0.221200000000     0.824100000000     0          
H1475    H      0.627820000000     0.225460000000     0.785390000000     0          
C1476    C      0.572400000000     0.233300000000     0.856100000000     0          
H1477    H      0.561830000000     0.245260000000     0.835850000000     0          
C1478    C      0.550300000000     0.227200000000     0.922500000000     0          
C1479    C      0.561800000000     0.209100000000     0.951200000000     0          
H1480    H      0.547060000000     0.205140000000     0.993250000000     0          
C1481    C      0.597300000000     0.196700000000     0.913300000000     0          
H1482    H      0.607620000000     0.184340000000     0.930580000000     0          
C1483    C      0.515000000000     0.241200000000     0.959200000000     0          
C1484    C      0.533800000000     0.259300000000     0.982800000000     0          
C1485    C      0.500500000000     0.271000000000     0.021100000000     0          
C1486    C      0.450300000000     0.265100000000     0.038200000000     0          
C1487    C      0.431600000000     0.247200000000     0.015500000000     0          
C1488    C      0.463200000000     0.235000000000     0.976000000000     0          
C1489    C      0.633600000000     0.257900000000     0.987300000000     0          
H1490    H      0.629580000000     0.247480000000     0.018450000000     0          
C1491    C      0.587900000000     0.267100000000     0.959000000000     0          
C1492    C      0.593800000000     0.282300000000     0.913400000000     0          
H1493    H      0.562600000000     0.288590000000     0.894030000000     0          
C1494    C      0.645500000000     0.288300000000     0.896000000000     0          
H1495    H      0.649500000000     0.298680000000     0.864850000000     0          
C1496    C      0.691200000000     0.279100000000     0.924300000000     0          
C1497    C      0.685200000000     0.263900000000     0.969900000000     0          
H1498    H      0.716480000000     0.257570000000     0.989270000000     0          
C1499    C      0.737000000000     0.284600000000     0.879000000000     0          
C1500    C      0.522000000000     0.289700000000     0.042400000000     0          
C1501    C      0.561800000000     0.290200000000     0.095600000000     0          
H1502    H      0.574990000000     0.278670000000     0.116470000000     0          
C1503    C      0.581900000000     0.308600000000     0.117200000000     0          
H1504    H      0.609400000000     0.309380000000     0.152470000000     0          
C1505    C      0.561000000000     0.325700000000     0.086400000000     0          
C1506    C      0.522600000000     0.325500000000     0.034900000000     0          
H1507    H      0.510190000000     0.336910000000     0.012440000000     0          
C1508    C      0.501700000000     0.306400000000     0.016800000000     0          
H1509    H      0.471790000000     0.305660000000     0.984830000000     0          
C1510    C      0.586100000000     0.345200000000     0.110300000000     0          
C1511    C      0.417500000000     0.278100000000     0.076300000000     0          
C1512    C      0.430800000000     0.282300000000     0.147700000000     0          
H1513    H      0.460380000000     0.276180000000     0.171560000000     0          
C1514    C      0.397200000000     0.296200000000     0.180600000000     0          
H1515    H      0.406580000000     0.299890000000     0.226350000000     0          
C1516    C      0.349500000000     0.304800000000     0.147100000000     0          
C1517    C      0.339700000000     0.301600000000     0.077300000000     0          
H1518    H      0.311990000000     0.308770000000     0.053460000000     0          
C1519    C      0.371300000000     0.287400000000     0.040300000000     0          
H1520    H      0.362180000000     0.284350000000     0.993960000000     0          
C1521    C      0.318000000000     0.321300000000     0.171600000000     0          
C1522    C      0.373800000000     0.235300000000     0.107900000000     0          
H1523    H      0.404790000000     0.236790000000     0.137900000000     0          
C1524    C      0.376700000000     0.240300000000     0.039300000000     0          
C1525    C      0.331400000000     0.238100000000     0.995500000000     0          
H1526    H      0.333330000000     0.241520000000     0.948570000000     0          
C1527    C      0.283200000000     0.230800000000     0.020200000000     0          
H1528    H      0.252260000000     0.229330000000     0.990280000000     0          
C1529    C      0.280400000000     0.225800000000     0.088900000000     0          
C1530    C      0.325700000000     0.228000000000     0.132700000000     0          
H1531    H      0.323730000000     0.224600000000     0.179610000000     0          
C1532    C      0.228300000000     0.216100000000     0.113000000000     0          
C1533    C      0.438500000000     0.218100000000     0.941200000000     0          
C1534    C      0.437300000000     0.216100000000     0.871600000000     0          
H1535    H      0.452830000000     0.225720000000     0.843750000000     0          
C1536    C      0.413400000000     0.199900000000     0.842000000000     0          
H1537    H      0.412360000000     0.198730000000     0.793510000000     0          
C1538    C      0.390300000000     0.184900000000     0.881600000000     0          
C1539    C      0.391500000000     0.186500000000     0.949600000000     0          
H1540    H      0.375040000000     0.177040000000     0.977270000000     0          
C1541    C      0.418000000000     0.202700000000     0.979500000000     0          
H1542    H      0.422180000000     0.203250000000     0.027950000000     0          
C1543    C      0.356300000000     0.168810000000     0.846700000000     0          
C1544    C      0.646100000000     0.124700000000     0.942300000000     0          
C1545    C      0.609600000000     0.123600000000     0.002700000000     0          
C1546    C      0.614700000000     0.107200000000     0.043400000000     0          
H1547    H      0.639450000000     0.097270000000     0.031920000000     0          
C1548    C      0.584500000000     0.105400000000     0.099300000000     0          
H1549    H      0.586030000000     0.093860000000     0.125750000000     0          
C1550    C      0.551700000000     0.120400000000     0.117600000000     0          
C1551    C      0.544900000000     0.137900000000     0.077300000000     0          
H1552    H      0.521490000000     0.148010000000     0.090710000000     0          
C1553    C      0.574400000000     0.139100000000     0.018000000000     0          
H1554    H      0.571120000000     0.150040000000     0.988700000000     0          
C1555    C      0.524000000000     0.120000000000     0.187900000000     0          
C1556    C      0.557700000000     0.119600000000     0.246200000000     0          
C1557    C      0.532600000000     0.118900000000     0.309200000000     0          
C1558    C      0.567500000000     0.119200000000     0.375200000000     0          
C1559    C      0.600900000000     0.134600000000     0.391500000000     0          
H1560    H      0.601130000000     0.145710000000     0.363150000000     0          
C1561    C      0.634600000000     0.133400000000     0.450700000000     0          
H1562    H      0.658360000000     0.143910000000     0.461740000000     0          
C1563    C      0.634300000000     0.117900000000     0.492700000000     0          
C1564    C      0.599600000000     0.103200000000     0.474800000000     0          
H1565    H      0.598540000000     0.092250000000     0.504140000000     0          
C1566    C      0.565800000000     0.103200000000     0.416500000000     0          
H1567    H      0.542390000000     0.092590000000     0.405740000000     0          
C1568    C      0.667700000000     0.117200000000     0.555200000000     0          
C1569    C      0.729200000000     0.120100000000     0.232000000000     0          
C1570    C      0.703100000000     0.103500000000     0.253500000000     0          
H1571    H      0.723560000000     0.092170000000     0.264460000000     0          
C1572    C      0.646900000000     0.103400000000     0.258900000000     0          
H1573    H      0.629030000000     0.092000000000     0.273570000000     0          
C1574    C      0.616900000000     0.119900000000     0.242800000000     0          
C1575    C      0.643100000000     0.136500000000     0.221300000000     0          
H1576    H      0.622590000000     0.147780000000     0.210280000000     0          
C1577    C      0.699200000000     0.136600000000     0.215900000000     0          
H1578    H      0.717120000000     0.147950000000     0.201160000000     0          
C1579    C      0.796700000000     0.118600000000     0.222100000000     0          
C1580    C      0.804900000000     0.138600000000     0.974000000000     0          
C1581    C      0.813600000000     0.143600000000     0.050700000000     0          
C1582    C      0.689400000000     0.069500000000     0.843300000000     0          
C1583    C      0.672300000000     0.049700000000     0.872500000000     0          
C1584    C      0.854600000000     0.131800000000     0.583000000000     0          
C1585    C      0.898000000000     0.135300000000     0.530200000000     0          
C1586    C      0.842100000000     0.080320000000     0.604800000000     0          
C1587    C      0.875600000000     0.064410000000     0.581400000000     0          
C1588    C      0.896900000000     0.052220000000     0.627100000000     0          
H1589    H      0.891100000000     0.054610000000     0.674090000000     0          
C1590    C      0.927900000000     0.035710000000     0.609400000000     0          
H1591    H      0.941760000000     0.027000000000     0.643370000000     0          
C1592    C      0.937100000000     0.032900000000     0.540500000000     0          
C1593    C      0.915700000000     0.045200000000     0.492400000000     0          
H1594    H      0.921820000000     0.043120000000     0.445280000000     0          
C1595    C      0.883900000000     0.061300000000     0.513200000000     0          
H1596    H      0.868430000000     0.069870000000     0.479840000000     0          
C1597    C      0.970300000000     0.016280000000     0.518900000000     0          
C1598    C      0.026500000000     0.015830000000     0.531100000000     0          
C1599    C      0.055800000000     0.999790000000     0.512800000000     0          
C1600    C      0.055500000000     0.033390000000     0.560800000000     0          
C1601    C      0.061600000000     0.035590000000     0.630200000000     0          
H1602    H      0.045960000000     0.026610000000     0.660560000000     0          
C1603    C      0.091200000000     0.051350000000     0.655000000000     0          
H1604    H      0.094330000000     0.053340000000     0.703040000000     0          
C1605    C      0.116100000000     0.064070000000     0.612900000000     0          
C1606    C      0.111300000000     0.060970000000     0.544800000000     0          
H1607    H      0.129450000000     0.069350000000     0.514710000000     0          
C1608    C      0.080600000000     0.045930000000     0.518000000000     0          
H1609    H      0.076960000000     0.044270000000     0.469780000000     0          
C1610    C      0.149400000000     0.080320000000     0.639800000000     0          
C1611    C      0.226900000000     0.000530000000     0.555800000000     0          
C1612    C      0.206700000000     0.004430000000     0.489900000000     0          
H1613    H      0.230990000000     0.007420000000     0.454730000000     0          
C1614    C      0.151000000000     0.003970000000     0.475500000000     0          
H1615    H      0.137210000000     0.006640000000     0.430500000000     0          
C1616    C      0.115500000000     0.999600000000     0.527000000000     0          
C1617    C      0.135700000000     0.995700000000     0.592900000000     0          
H1618    H      0.111430000000     0.992710000000     0.628070000000     0          
C1619    C      0.191400000000     0.996160000000     0.607300000000     0          
H1620    H      0.205210000000     0.993490000000     0.652300000000     0          
O1621    O      0.299900000000     0.995900000000     0.634800000000     0          
O1622    O      0.319300000000     0.003700000000     0.523700000000     0          
C1623    C      0.306600000000     0.999300000000     0.577200000000     0          
H1624    H      0.844980000000     0.133340000000     0.075030000000     0          
H1625    H      0.828740000000     0.159120000000     0.056070000000     0          
H1626    H      0.773490000000     0.142020000000     0.077550000000     0          
H1627    H      0.643260000000     0.052070000000     0.915840000000     0          
H1628    H      0.651140000000     0.040810000000     0.830270000000     0          
H1629    H      0.709900000000     0.041640000000     0.892890000000     0          
H1630    H      0.883510000000     0.129130000000     0.478630000000     0          
H1631    H      0.905360000000     0.151490000000     0.524920000000     0          
H1632    H      0.937440000000     0.127880000000     0.547740000000     0          


