data_OFOJAX

_audit_creation_method RASPA-1.0
_audit_creation_date 2020-12-14
_audit_author_name 'Rocio Bueno-Perez'

_cell_length_a    32.2282
_cell_length_b    32.2282
_cell_length_c    26.548
_cell_angle_alpha 90
_cell_angle_beta  90
_cell_angle_gamma 120
_cell_volume      23880

_symmetry_cell_setting          triclinic
_symmetry_space_group_name_Hall 'P 1'
_symmetry_space_group_name_H-M  'P 1'
_symmetry_Int_Tables_number     1

_symmetry_equiv_pos_as_xyz 'x,y,z'

loop_
_atom_site_label
_atom_site_type_symbol
_atom_site_fract_x
_atom_site_fract_y
_atom_site_fract_z
_atom_site_charge
Zr1      Zr     0.595900000000     0.288000000000     0.477310000000     0          
Zr2      Zr     0.640470000000     0.263020000000     0.584840000000     0          
O3       O      0.583700000000     0.320900000000     0.414100000000     0          
O4       O      0.644400000000     0.398600000000     0.412900000000     0          
O5       O      0.533200000000     0.295000000000     0.492800000000     0          
O6       O      0.547700000000     0.338300000000     0.564900000000     0          
O7       O      0.627600000000     0.356700000000     0.505700000000     0          
O8       O      0.538700000000     0.216300000000     0.486500000000     0          
O9       O      0.583900000000     0.280800000000     0.558100000000     0          
O10      O      0.376700000000     0.580200000000     0.402500000000     0          
O11      O      0.396300000000     0.365800000000     0.531200000000     0          
O12      O      0.452400000000     0.431600000000     0.545400000000     0          
N13      N      0.485500000000     0.139400000000     0.511300000000     0          
C14      C      0.603400000000     0.364100000000     0.399200000000     0          
C15      C      0.517500000000     0.399600000000     0.305900000000     0          
C16      C      0.500500000000     0.352500000000     0.320900000000     0          
H17      H      0.469670000000     0.328850000000     0.312050000000     0          
C18      C      0.529500000000     0.340600000000     0.348900000000     0          
H19      H      0.518090000000     0.309100000000     0.358920000000     0          
C20      C      0.575600000000     0.376000000000     0.362100000000     0          
C21      C      0.592600000000     0.423100000000     0.347200000000     0          
H22      H      0.623460000000     0.446720000000     0.355990000000     0          
C23      C      0.563600000000     0.434900000000     0.319100000000     0          
H24      H      0.575030000000     0.466460000000     0.309110000000     0          
C25      C      0.487600000000     0.414500000000     0.275700000000     0          
C26      C      0.459000000000     0.427100000000     0.302700000000     0          
C27      C      0.431100000000     0.443100000000     0.276500000000     0          
C28      C      0.407900000000     0.465800000000     0.303600000000     0          
C29      C      0.435900000000     0.509300000000     0.329600000000     0          
H30      H      0.468890000000     0.522570000000     0.333170000000     0          
C31      C      0.411800000000     0.531400000000     0.349800000000     0          
H32      H      0.430630000000     0.563610000000     0.358210000000     0          
C33      C      0.365600000000     0.512100000000     0.358300000000     0          
C34      C      0.339200000000     0.458800000000     0.344700000000     0          
H35      H      0.307690000000     0.438760000000     0.354770000000     0          
C36      C      0.363000000000     0.441600000000     0.317700000000     0          
H37      H      0.345710000000     0.409550000000     0.308250000000     0          
C38      C      0.355300000000     0.539700000000     0.390800000000     0          
C39      C      0.454000000000     0.421700000000     0.359000000000     0          
C40      C      0.483400000000     0.457700000000     0.390300000000     0          
H41      H      0.506510000000     0.488080000000     0.379460000000     0          
C42      C      0.473600000000     0.441800000000     0.447500000000     0          
H43      H      0.496810000000     0.458770000000     0.471810000000     0          
C44      C      0.434600000000     0.406300000000     0.459800000000     0          
C45      C      0.409200000000     0.371200000000     0.428700000000     0          
H46      H      0.386670000000     0.341050000000     0.440510000000     0          
C47      C      0.416800000000     0.380300000000     0.378700000000     0          
H48      H      0.395570000000     0.357100000000     0.356420000000     0          
C49      C      0.426800000000     0.399600000000     0.514100000000     0          
C50      C      0.518700000000     0.311300000000     0.522900000000     0          
C51      C      0.472500000000     0.314700000000     0.517800000000     0          
C52      C      0.527000000000     0.172000000000     0.499900000000     0          
C53      C      0.552300000000     0.150900000000     0.495000000000     0          
C54      C      0.459700000000     0.090300000000     0.525000000000     0          
O55      O      0.632000000000     0.276000000000     0.664600000000     0          
O56      O      0.569000000000     0.282400000000     0.649800000000     0          
C57      C      0.603800000000     0.290200000000     0.677400000000     0          
O58      O      0.306300000000     0.523800000000     0.384100000000     0          
C59      C      0.703200000000     0.547000000000     0.532700000000     0          
H60      H      0.727620000000     0.571700000000     0.501800000000     0          
H61      H      0.718560000000     0.524430000000     0.547990000000     0          
H62      H      0.700630000000     0.569420000000     0.564460000000     0          
H63      H      0.366110000000     0.453190000000     0.432610000000     0          
H64      H      0.351940000000     0.423860000000     0.495590000000     0          
H65      H      0.408870000000     0.481320000000     0.485790000000     0          
O66      O      0.666670000000     0.333330000000     0.443000000000     0          
O67      O      0.666670000000     0.333330000000     0.595200000000     0          
Zr68     Zr     0.307900000000     0.595900000000     0.977310000000     0          
Zr69     Zr     0.377450000000     0.640470000000     0.084840000000     0          
O70      O      0.262800000000     0.583700000000     0.914100000000     0          
O71      O      0.245800000000     0.644400000000     0.912900000000     0          
O72      O      0.238200000000     0.533200000000     0.992800000000     0          
O73      O      0.209400000000     0.547700000000     0.064900000000     0          
O74      O      0.270900000000     0.627600000000     0.005700000000     0          
O75      O      0.322400000000     0.538700000000     0.986500000000     0          
O76      O      0.303100000000     0.583900000000     0.058100000000     0          
O77      O      0.796500000000     0.376700000000     0.902500000000     0          
O78      O      0.030500000000     0.396300000000     0.031200000000     0          
O79      O      0.020800000000     0.452400000000     0.045400000000     0          
N80      N      0.346100000000     0.485500000000     0.011300000000     0          
C81      C      0.239300000000     0.603400000000     0.899200000000     0          
C82      C      0.117900000000     0.517500000000     0.805900000000     0          
C83      C      0.148000000000     0.500500000000     0.820900000000     0          
H84      H      0.140820000000     0.469670000000     0.812050000000     0          
C85      C      0.188900000000     0.529500000000     0.848900000000     0          
H86      H      0.208990000000     0.518090000000     0.858920000000     0          
C87      C      0.199600000000     0.575600000000     0.862100000000     0          
C88      C      0.169500000000     0.592600000000     0.847200000000     0          
H89      H      0.176740000000     0.623460000000     0.855990000000     0          
C90      C      0.128700000000     0.563600000000     0.819100000000     0          
H91      H      0.108570000000     0.575030000000     0.809110000000     0          
C92      C      0.073100000000     0.487600000000     0.775700000000     0          
C93      C      0.031900000000     0.459000000000     0.802700000000     0          
C94      C      0.988000000000     0.431100000000     0.776500000000     0          
C95      C      0.942100000000     0.407900000000     0.803600000000     0          
C96      C      0.926600000000     0.435900000000     0.829600000000     0          
H97      H      0.946320000000     0.468890000000     0.833170000000     0          
C98      C      0.880400000000     0.411800000000     0.849800000000     0          
H99      H      0.867020000000     0.430630000000     0.858210000000     0          
C100     C      0.853500000000     0.365600000000     0.858300000000     0          
C101     C      0.880400000000     0.339200000000     0.844700000000     0          
H102     H      0.868930000000     0.307690000000     0.854770000000     0          
C103     C      0.921400000000     0.363000000000     0.817700000000     0          
H104     H      0.936160000000     0.345710000000     0.808250000000     0          
C105     C      0.815600000000     0.355300000000     0.890800000000     0          
C106     C      0.032300000000     0.454000000000     0.859000000000     0          
C107     C      0.025700000000     0.483400000000     0.890300000000     0          
H108     H      0.018430000000     0.506510000000     0.879460000000     0          
C109     C      0.031800000000     0.473600000000     0.947500000000     0          
H110     H      0.038040000000     0.496810000000     0.971810000000     0          
C111     C      0.028300000000     0.434600000000     0.959800000000     0          
C112     C      0.038000000000     0.409200000000     0.928700000000     0          
H113     H      0.045620000000     0.386670000000     0.940510000000     0          
C114     C      0.036500000000     0.416800000000     0.878700000000     0          
H115     H      0.038470000000     0.395570000000     0.856420000000     0          
C116     C      0.027200000000     0.426800000000     0.014100000000     0          
C117     C      0.207400000000     0.518700000000     0.022900000000     0          
C118     C      0.157800000000     0.472500000000     0.017800000000     0          
C119     C      0.355000000000     0.527000000000     0.999900000000     0          
C120     C      0.401400000000     0.552300000000     0.995000000000     0          
C121     C      0.369400000000     0.459700000000     0.025000000000     0          
O122     O      0.356000000000     0.632000000000     0.164600000000     0          
O123     O      0.286600000000     0.569000000000     0.149800000000     0          
C124     C      0.313600000000     0.603800000000     0.177400000000     0          
O125     O      0.782500000000     0.306300000000     0.884100000000     0          
C126     C      0.156200000000     0.703200000000     0.032700000000     0          
H127     H      0.155920000000     0.727620000000     0.001800000000     0          
H128     H      0.194130000000     0.718560000000     0.047990000000     0          
H129     H      0.131210000000     0.700630000000     0.064460000000     0          
H130     H      0.912920000000     0.366110000000     0.932610000000     0          
H131     H      0.928080000000     0.351940000000     0.995590000000     0          
H132     H      0.927550000000     0.408870000000     0.985790000000     0          
O133     O      0.333340000000     0.666670000000     0.943000000000     0          
O134     O      0.333340000000     0.666670000000     0.095200000000     0          
Zr135    Zr     0.712000000000     0.307900000000     0.477310000000     0          
Zr136    Zr     0.736980000000     0.377450000000     0.584840000000     0          
O137     O      0.679100000000     0.262800000000     0.414100000000     0          
O138     O      0.601400000000     0.245800000000     0.412900000000     0          
O139     O      0.705000000000     0.238200000000     0.492800000000     0          
O140     O      0.661700000000     0.209400000000     0.564900000000     0          
O141     O      0.643300000000     0.270900000000     0.505700000000     0          
O142     O      0.783700000000     0.322400000000     0.486500000000     0          
O143     O      0.719200000000     0.303100000000     0.558100000000     0          
O144     O      0.419800000000     0.796500000000     0.402500000000     0          
O145     O      0.634200000000     0.030500000000     0.531200000000     0          
O146     O      0.568400000000     0.020800000000     0.545400000000     0          
N147     N      0.860600000000     0.346100000000     0.511300000000     0          
C148     C      0.635900000000     0.239300000000     0.399200000000     0          
C149     C      0.600400000000     0.117900000000     0.305900000000     0          
C150     C      0.647500000000     0.148000000000     0.320900000000     0          
H151     H      0.671150000000     0.140820000000     0.312050000000     0          
C152     C      0.659400000000     0.188900000000     0.348900000000     0          
H153     H      0.690900000000     0.208990000000     0.358920000000     0          
C154     C      0.624000000000     0.199600000000     0.362100000000     0          
C155     C      0.576900000000     0.169500000000     0.347200000000     0          
H156     H      0.553280000000     0.176740000000     0.355990000000     0          
C157     C      0.565100000000     0.128700000000     0.319100000000     0          
H158     H      0.533540000000     0.108570000000     0.309110000000     0          
C159     C      0.585500000000     0.073100000000     0.275700000000     0          
C160     C      0.572900000000     0.031900000000     0.302700000000     0          
C161     C      0.556900000000     0.988000000000     0.276500000000     0          
C162     C      0.534200000000     0.942100000000     0.303600000000     0          
C163     C      0.490700000000     0.926600000000     0.329600000000     0          
H164     H      0.477430000000     0.946320000000     0.333170000000     0          
C165     C      0.468600000000     0.880400000000     0.349800000000     0          
H166     H      0.436390000000     0.867020000000     0.358210000000     0          
C167     C      0.487900000000     0.853500000000     0.358300000000     0          
C168     C      0.541200000000     0.880400000000     0.344700000000     0          
H169     H      0.561240000000     0.868930000000     0.354770000000     0          
C170     C      0.558400000000     0.921400000000     0.317700000000     0          
H171     H      0.590450000000     0.936160000000     0.308250000000     0          
C172     C      0.460300000000     0.815600000000     0.390800000000     0          
C173     C      0.578300000000     0.032300000000     0.359000000000     0          
C174     C      0.542300000000     0.025700000000     0.390300000000     0          
H175     H      0.511920000000     0.018430000000     0.379460000000     0          
C176     C      0.558200000000     0.031800000000     0.447500000000     0          
H177     H      0.541230000000     0.038040000000     0.471810000000     0          
C178     C      0.593700000000     0.028300000000     0.459800000000     0          
C179     C      0.628800000000     0.038000000000     0.428700000000     0          
H180     H      0.658950000000     0.045620000000     0.440510000000     0          
C181     C      0.619700000000     0.036500000000     0.378700000000     0          
H182     H      0.642900000000     0.038470000000     0.356420000000     0          
C183     C      0.600400000000     0.027200000000     0.514100000000     0          
C184     C      0.688700000000     0.207400000000     0.522900000000     0          
C185     C      0.685300000000     0.157800000000     0.517800000000     0          
C186     C      0.828000000000     0.355000000000     0.499900000000     0          
C187     C      0.849100000000     0.401400000000     0.495000000000     0          
C188     C      0.909700000000     0.369400000000     0.525000000000     0          
O189     O      0.724000000000     0.356000000000     0.664600000000     0          
O190     O      0.717600000000     0.286600000000     0.649800000000     0          
C191     C      0.709800000000     0.313600000000     0.677400000000     0          
O192     O      0.476200000000     0.782500000000     0.384100000000     0          
C193     C      0.453000000000     0.156200000000     0.532700000000     0          
H194     H      0.428300000000     0.155920000000     0.501800000000     0          
H195     H      0.475570000000     0.194130000000     0.547990000000     0          
H196     H      0.430580000000     0.131210000000     0.564460000000     0          
H197     H      0.546810000000     0.912920000000     0.432610000000     0          
H198     H      0.576140000000     0.928080000000     0.495590000000     0          
H199     H      0.518680000000     0.927550000000     0.485790000000     0          
Zr200    Zr     0.404100000000     0.712000000000     0.977310000000     0          
Zr201    Zr     0.359530000000     0.736980000000     0.084840000000     0          
O202     O      0.416300000000     0.679100000000     0.914100000000     0          
O203     O      0.355600000000     0.601400000000     0.912900000000     0          
O204     O      0.466800000000     0.705000000000     0.992800000000     0          
O205     O      0.452300000000     0.661700000000     0.064900000000     0          
O206     O      0.372400000000     0.643300000000     0.005700000000     0          
O207     O      0.461300000000     0.783700000000     0.986500000000     0          
O208     O      0.416100000000     0.719200000000     0.058100000000     0          
O209     O      0.623300000000     0.419800000000     0.902500000000     0          
O210     O      0.603700000000     0.634200000000     0.031200000000     0          
O211     O      0.547600000000     0.568400000000     0.045400000000     0          
N212     N      0.514500000000     0.860600000000     0.011300000000     0          
C213     C      0.396600000000     0.635900000000     0.899200000000     0          
C214     C      0.482500000000     0.600400000000     0.805900000000     0          
C215     C      0.499500000000     0.647500000000     0.820900000000     0          
H216     H      0.530330000000     0.671150000000     0.812050000000     0          
C217     C      0.470500000000     0.659400000000     0.848900000000     0          
H218     H      0.481910000000     0.690900000000     0.858920000000     0          
C219     C      0.424400000000     0.624000000000     0.862100000000     0          
C220     C      0.407400000000     0.576900000000     0.847200000000     0          
H221     H      0.376540000000     0.553280000000     0.855990000000     0          
C222     C      0.436400000000     0.565100000000     0.819100000000     0          
H223     H      0.424970000000     0.533540000000     0.809110000000     0          
C224     C      0.512400000000     0.585500000000     0.775700000000     0          
C225     C      0.541000000000     0.572900000000     0.802700000000     0          
C226     C      0.568900000000     0.556900000000     0.776500000000     0          
C227     C      0.592100000000     0.534200000000     0.803600000000     0          
C228     C      0.564100000000     0.490700000000     0.829600000000     0          
H229     H      0.531110000000     0.477430000000     0.833170000000     0          
C230     C      0.588200000000     0.468600000000     0.849800000000     0          
H231     H      0.569370000000     0.436390000000     0.858210000000     0          
C232     C      0.634400000000     0.487900000000     0.858300000000     0          
C233     C      0.660800000000     0.541200000000     0.844700000000     0          
H234     H      0.692310000000     0.561240000000     0.854770000000     0          
C235     C      0.637000000000     0.558400000000     0.817700000000     0          
H236     H      0.654290000000     0.590450000000     0.808250000000     0          
C237     C      0.644700000000     0.460300000000     0.890800000000     0          
C238     C      0.546000000000     0.578300000000     0.859000000000     0          
C239     C      0.516600000000     0.542300000000     0.890300000000     0          
H240     H      0.493490000000     0.511920000000     0.879460000000     0          
C241     C      0.526400000000     0.558200000000     0.947500000000     0          
H242     H      0.503190000000     0.541230000000     0.971810000000     0          
C243     C      0.565400000000     0.593700000000     0.959800000000     0          
C244     C      0.590800000000     0.628800000000     0.928700000000     0          
H245     H      0.613330000000     0.658950000000     0.940510000000     0          
C246     C      0.583200000000     0.619700000000     0.878700000000     0          
H247     H      0.604430000000     0.642900000000     0.856420000000     0          
C248     C      0.573200000000     0.600400000000     0.014100000000     0          
C249     C      0.481300000000     0.688700000000     0.022900000000     0          
C250     C      0.527500000000     0.685300000000     0.017800000000     0          
C251     C      0.473000000000     0.828000000000     0.999900000000     0          
C252     C      0.447700000000     0.849100000000     0.995000000000     0          
C253     C      0.540300000000     0.909700000000     0.025000000000     0          
O254     O      0.368000000000     0.724000000000     0.164600000000     0          
O255     O      0.431000000000     0.717600000000     0.149800000000     0          
C256     C      0.396200000000     0.709800000000     0.177400000000     0          
O257     O      0.693700000000     0.476200000000     0.884100000000     0          
C258     C      0.296800000000     0.453000000000     0.032700000000     0          
H259     H      0.272380000000     0.428300000000     0.001800000000     0          
H260     H      0.281440000000     0.475570000000     0.047990000000     0          
H261     H      0.299370000000     0.430580000000     0.064460000000     0          
H262     H      0.633890000000     0.546810000000     0.932610000000     0          
H263     H      0.648060000000     0.576140000000     0.995590000000     0          
H264     H      0.591130000000     0.518680000000     0.985790000000     0          
Zr265    Zr     0.692100000000     0.404100000000     0.477310000000     0          
Zr266    Zr     0.622550000000     0.359530000000     0.584840000000     0          
O267     O      0.737200000000     0.416300000000     0.414100000000     0          
O268     O      0.754200000000     0.355600000000     0.412900000000     0          
O269     O      0.761800000000     0.466800000000     0.492800000000     0          
O270     O      0.790600000000     0.452300000000     0.564900000000     0          
O271     O      0.729100000000     0.372400000000     0.505700000000     0          
O272     O      0.677600000000     0.461300000000     0.486500000000     0          
O273     O      0.696900000000     0.416100000000     0.558100000000     0          
O274     O      0.203500000000     0.623300000000     0.402500000000     0          
O275     O      0.969500000000     0.603700000000     0.531200000000     0          
O276     O      0.979200000000     0.547600000000     0.545400000000     0          
N277     N      0.653900000000     0.514500000000     0.511300000000     0          
C278     C      0.760700000000     0.396600000000     0.399200000000     0          
C279     C      0.882100000000     0.482500000000     0.305900000000     0          
C280     C      0.852000000000     0.499500000000     0.320900000000     0          
H281     H      0.859180000000     0.530330000000     0.312050000000     0          
C282     C      0.811100000000     0.470500000000     0.348900000000     0          
H283     H      0.791010000000     0.481910000000     0.358920000000     0          
C284     C      0.800400000000     0.424400000000     0.362100000000     0          
C285     C      0.830500000000     0.407400000000     0.347200000000     0          
H286     H      0.823260000000     0.376540000000     0.355990000000     0          
C287     C      0.871300000000     0.436400000000     0.319100000000     0          
H288     H      0.891430000000     0.424970000000     0.309110000000     0          
C289     C      0.926900000000     0.512400000000     0.275700000000     0          
C290     C      0.968100000000     0.541000000000     0.302700000000     0          
C291     C      0.012000000000     0.568900000000     0.276500000000     0          
C292     C      0.057900000000     0.592100000000     0.303600000000     0          
C293     C      0.073400000000     0.564100000000     0.329600000000     0          
H294     H      0.053680000000     0.531110000000     0.333170000000     0          
C295     C      0.119600000000     0.588200000000     0.349800000000     0          
H296     H      0.132980000000     0.569370000000     0.358210000000     0          
C297     C      0.146500000000     0.634400000000     0.358300000000     0          
C298     C      0.119600000000     0.660800000000     0.344700000000     0          
H299     H      0.131070000000     0.692310000000     0.354770000000     0          
C300     C      0.078600000000     0.637000000000     0.317700000000     0          
H301     H      0.063840000000     0.654290000000     0.308250000000     0          
C302     C      0.184400000000     0.644700000000     0.390800000000     0          
C303     C      0.967700000000     0.546000000000     0.359000000000     0          
C304     C      0.974300000000     0.516600000000     0.390300000000     0          
H305     H      0.981570000000     0.493490000000     0.379460000000     0          
C306     C      0.968200000000     0.526400000000     0.447500000000     0          
H307     H      0.961960000000     0.503190000000     0.471810000000     0          
C308     C      0.971700000000     0.565400000000     0.459800000000     0          
C309     C      0.962000000000     0.590800000000     0.428700000000     0          
H310     H      0.954380000000     0.613330000000     0.440510000000     0          
C311     C      0.963500000000     0.583200000000     0.378700000000     0          
H312     H      0.961530000000     0.604430000000     0.356420000000     0          
C313     C      0.972800000000     0.573200000000     0.514100000000     0          
C314     C      0.792600000000     0.481300000000     0.522900000000     0          
C315     C      0.842200000000     0.527500000000     0.517800000000     0          
C316     C      0.645000000000     0.473000000000     0.499900000000     0          
C317     C      0.598600000000     0.447700000000     0.495000000000     0          
C318     C      0.630600000000     0.540300000000     0.525000000000     0          
O319     O      0.644000000000     0.368000000000     0.664600000000     0          
O320     O      0.713400000000     0.431000000000     0.649800000000     0          
C321     C      0.686400000000     0.396200000000     0.677400000000     0          
O322     O      0.217500000000     0.693700000000     0.384100000000     0          
C323     C      0.843800000000     0.296800000000     0.532700000000     0          
H324     H      0.844080000000     0.272380000000     0.501800000000     0          
H325     H      0.805870000000     0.281440000000     0.547990000000     0          
H326     H      0.868790000000     0.299370000000     0.564460000000     0          
H327     H      0.087080000000     0.633890000000     0.432610000000     0          
H328     H      0.071920000000     0.648060000000     0.495590000000     0          
H329     H      0.072450000000     0.591130000000     0.485790000000     0          
Zr330    Zr     0.288000000000     0.692100000000     0.977310000000     0          
Zr331    Zr     0.263020000000     0.622550000000     0.084840000000     0          
O332     O      0.320900000000     0.737200000000     0.914100000000     0          
O333     O      0.398600000000     0.754200000000     0.912900000000     0          
O334     O      0.295000000000     0.761800000000     0.992800000000     0          
O335     O      0.338300000000     0.790600000000     0.064900000000     0          
O336     O      0.356700000000     0.729100000000     0.005700000000     0          
O337     O      0.216300000000     0.677600000000     0.986500000000     0          
O338     O      0.280800000000     0.696900000000     0.058100000000     0          
O339     O      0.580200000000     0.203500000000     0.902500000000     0          
O340     O      0.365800000000     0.969500000000     0.031200000000     0          
O341     O      0.431600000000     0.979200000000     0.045400000000     0          
N342     N      0.139400000000     0.653900000000     0.011300000000     0          
C343     C      0.364100000000     0.760700000000     0.899200000000     0          
C344     C      0.399600000000     0.882100000000     0.805900000000     0          
C345     C      0.352500000000     0.852000000000     0.820900000000     0          
H346     H      0.328850000000     0.859180000000     0.812050000000     0          
C347     C      0.340600000000     0.811100000000     0.848900000000     0          
H348     H      0.309100000000     0.791010000000     0.858920000000     0          
C349     C      0.376000000000     0.800400000000     0.862100000000     0          
C350     C      0.423100000000     0.830500000000     0.847200000000     0          
H351     H      0.446720000000     0.823260000000     0.855990000000     0          
C352     C      0.434900000000     0.871300000000     0.819100000000     0          
H353     H      0.466460000000     0.891430000000     0.809110000000     0          
C354     C      0.414500000000     0.926900000000     0.775700000000     0          
C355     C      0.427100000000     0.968100000000     0.802700000000     0          
C356     C      0.443100000000     0.012000000000     0.776500000000     0          
C357     C      0.465800000000     0.057900000000     0.803600000000     0          
C358     C      0.509300000000     0.073400000000     0.829600000000     0          
H359     H      0.522570000000     0.053680000000     0.833170000000     0          
C360     C      0.531400000000     0.119600000000     0.849800000000     0          
H361     H      0.563610000000     0.132980000000     0.858210000000     0          
C362     C      0.512100000000     0.146500000000     0.858300000000     0          
C363     C      0.458800000000     0.119600000000     0.844700000000     0          
H364     H      0.438760000000     0.131070000000     0.854770000000     0          
C365     C      0.441600000000     0.078600000000     0.817700000000     0          
H366     H      0.409550000000     0.063840000000     0.808250000000     0          
C367     C      0.539700000000     0.184400000000     0.890800000000     0          
C368     C      0.421700000000     0.967700000000     0.859000000000     0          
C369     C      0.457700000000     0.974300000000     0.890300000000     0          
H370     H      0.488080000000     0.981570000000     0.879460000000     0          
C371     C      0.441800000000     0.968200000000     0.947500000000     0          
H372     H      0.458770000000     0.961960000000     0.971810000000     0          
C373     C      0.406300000000     0.971700000000     0.959800000000     0          
C374     C      0.371200000000     0.962000000000     0.928700000000     0          
H375     H      0.341050000000     0.954380000000     0.940510000000     0          
C376     C      0.380300000000     0.963500000000     0.878700000000     0          
H377     H      0.357100000000     0.961530000000     0.856420000000     0          
C378     C      0.399600000000     0.972800000000     0.014100000000     0          
C379     C      0.311300000000     0.792600000000     0.022900000000     0          
C380     C      0.314700000000     0.842200000000     0.017800000000     0          
C381     C      0.172000000000     0.645000000000     0.999900000000     0          
C382     C      0.150900000000     0.598600000000     0.995000000000     0          
C383     C      0.090300000000     0.630600000000     0.025000000000     0          
O384     O      0.276000000000     0.644000000000     0.164600000000     0          
O385     O      0.282400000000     0.713400000000     0.149800000000     0          
C386     C      0.290200000000     0.686400000000     0.177400000000     0          
O387     O      0.523800000000     0.217500000000     0.884100000000     0          
C388     C      0.547000000000     0.843800000000     0.032700000000     0          
H389     H      0.571700000000     0.844080000000     0.001800000000     0          
H390     H      0.524430000000     0.805870000000     0.047990000000     0          
H391     H      0.569420000000     0.868790000000     0.064460000000     0          
H392     H      0.453190000000     0.087080000000     0.932610000000     0          
H393     H      0.423860000000     0.071920000000     0.995590000000     0          
H394     H      0.481320000000     0.072450000000     0.985790000000     0          
Zr395    Zr     0.404100000000     0.712000000000     0.522690000000     0          
Zr396    Zr     0.359530000000     0.736980000000     0.415160000000     0          
O397     O      0.416300000000     0.679100000000     0.585900000000     0          
O398     O      0.355600000000     0.601400000000     0.587100000000     0          
O399     O      0.466800000000     0.705000000000     0.507200000000     0          
O400     O      0.452300000000     0.661700000000     0.435100000000     0          
O401     O      0.372400000000     0.643300000000     0.494300000000     0          
O402     O      0.461300000000     0.783700000000     0.513500000000     0          
O403     O      0.416100000000     0.719200000000     0.441900000000     0          
O404     O      0.623300000000     0.419800000000     0.597500000000     0          
O405     O      0.603700000000     0.634200000000     0.468800000000     0          
O406     O      0.547600000000     0.568400000000     0.454600000000     0          
N407     N      0.514500000000     0.860600000000     0.488700000000     0          
C408     C      0.396600000000     0.635900000000     0.600800000000     0          
C409     C      0.482500000000     0.600400000000     0.694100000000     0          
C410     C      0.499500000000     0.647500000000     0.679100000000     0          
H411     H      0.530330000000     0.671150000000     0.687950000000     0          
C412     C      0.470500000000     0.659400000000     0.651100000000     0          
H413     H      0.481910000000     0.690900000000     0.641080000000     0          
C414     C      0.424400000000     0.624000000000     0.637900000000     0          
C415     C      0.407400000000     0.576900000000     0.652800000000     0          
H416     H      0.376540000000     0.553280000000     0.644010000000     0          
C417     C      0.436400000000     0.565100000000     0.680900000000     0          
H418     H      0.424970000000     0.533540000000     0.690890000000     0          
C419     C      0.512400000000     0.585500000000     0.724300000000     0          
C420     C      0.541000000000     0.572900000000     0.697300000000     0          
C421     C      0.568900000000     0.556900000000     0.723500000000     0          
C422     C      0.592100000000     0.534200000000     0.696400000000     0          
C423     C      0.564100000000     0.490700000000     0.670400000000     0          
H424     H      0.531110000000     0.477430000000     0.666830000000     0          
C425     C      0.588200000000     0.468600000000     0.650200000000     0          
H426     H      0.569370000000     0.436390000000     0.641790000000     0          
C427     C      0.634400000000     0.487900000000     0.641700000000     0          
C428     C      0.660800000000     0.541200000000     0.655300000000     0          
H429     H      0.692310000000     0.561240000000     0.645230000000     0          
C430     C      0.637000000000     0.558400000000     0.682300000000     0          
H431     H      0.654290000000     0.590450000000     0.691750000000     0          
C432     C      0.644700000000     0.460300000000     0.609200000000     0          
C433     C      0.546000000000     0.578300000000     0.641000000000     0          
C434     C      0.516600000000     0.542300000000     0.609700000000     0          
H435     H      0.493490000000     0.511920000000     0.620540000000     0          
C436     C      0.526400000000     0.558200000000     0.552500000000     0          
H437     H      0.503190000000     0.541230000000     0.528190000000     0          
C438     C      0.565400000000     0.593700000000     0.540200000000     0          
C439     C      0.590800000000     0.628800000000     0.571300000000     0          
H440     H      0.613330000000     0.658950000000     0.559490000000     0          
C441     C      0.583200000000     0.619700000000     0.621300000000     0          
H442     H      0.604430000000     0.642900000000     0.643580000000     0          
C443     C      0.573200000000     0.600400000000     0.485900000000     0          
C444     C      0.481300000000     0.688700000000     0.477100000000     0          
C445     C      0.527500000000     0.685300000000     0.482200000000     0          
C446     C      0.473000000000     0.828000000000     0.500100000000     0          
C447     C      0.447700000000     0.849100000000     0.505000000000     0          
C448     C      0.540300000000     0.909700000000     0.475000000000     0          
O449     O      0.368000000000     0.724000000000     0.335400000000     0          
O450     O      0.431000000000     0.717600000000     0.350200000000     0          
C451     C      0.396200000000     0.709800000000     0.322600000000     0          
O452     O      0.693700000000     0.476200000000     0.615900000000     0          
C453     C      0.296800000000     0.453000000000     0.467300000000     0          
H454     H      0.272380000000     0.428300000000     0.498200000000     0          
H455     H      0.281440000000     0.475570000000     0.452010000000     0          
H456     H      0.299370000000     0.430580000000     0.435540000000     0          
H457     H      0.633890000000     0.546810000000     0.567390000000     0          
H458     H      0.648060000000     0.576140000000     0.504410000000     0          
H459     H      0.591130000000     0.518680000000     0.514210000000     0          
O460     O      0.333330000000     0.666670000000     0.557000000000     0          
O461     O      0.333330000000     0.666670000000     0.404800000000     0          
Zr462    Zr     0.692100000000     0.404100000000     0.022690000000     0          
Zr463    Zr     0.622550000000     0.359530000000     0.915160000000     0          
O464     O      0.737200000000     0.416300000000     0.085900000000     0          
O465     O      0.754200000000     0.355600000000     0.087100000000     0          
O466     O      0.761800000000     0.466800000000     0.007200000000     0          
O467     O      0.790600000000     0.452300000000     0.935100000000     0          
O468     O      0.729100000000     0.372400000000     0.994300000000     0          
O469     O      0.677600000000     0.461300000000     0.013500000000     0          
O470     O      0.696900000000     0.416100000000     0.941900000000     0          
O471     O      0.203500000000     0.623300000000     0.097500000000     0          
O472     O      0.969500000000     0.603700000000     0.968800000000     0          
O473     O      0.979200000000     0.547600000000     0.954600000000     0          
N474     N      0.653900000000     0.514500000000     0.988700000000     0          
C475     C      0.760700000000     0.396600000000     0.100800000000     0          
C476     C      0.882100000000     0.482500000000     0.194100000000     0          
C477     C      0.852000000000     0.499500000000     0.179100000000     0          
H478     H      0.859180000000     0.530330000000     0.187950000000     0          
C479     C      0.811100000000     0.470500000000     0.151100000000     0          
H480     H      0.791010000000     0.481910000000     0.141080000000     0          
C481     C      0.800400000000     0.424400000000     0.137900000000     0          
C482     C      0.830500000000     0.407400000000     0.152800000000     0          
H483     H      0.823260000000     0.376540000000     0.144010000000     0          
C484     C      0.871300000000     0.436400000000     0.180900000000     0          
H485     H      0.891430000000     0.424970000000     0.190890000000     0          
C486     C      0.926900000000     0.512400000000     0.224300000000     0          
C487     C      0.968100000000     0.541000000000     0.197300000000     0          
C488     C      0.012000000000     0.568900000000     0.223500000000     0          
C489     C      0.057900000000     0.592100000000     0.196400000000     0          
C490     C      0.073400000000     0.564100000000     0.170400000000     0          
H491     H      0.053680000000     0.531110000000     0.166830000000     0          
C492     C      0.119600000000     0.588200000000     0.150200000000     0          
H493     H      0.132980000000     0.569370000000     0.141790000000     0          
C494     C      0.146500000000     0.634400000000     0.141700000000     0          
C495     C      0.119600000000     0.660800000000     0.155300000000     0          
H496     H      0.131070000000     0.692310000000     0.145230000000     0          
C497     C      0.078600000000     0.637000000000     0.182300000000     0          
H498     H      0.063840000000     0.654290000000     0.191750000000     0          
C499     C      0.184400000000     0.644700000000     0.109200000000     0          
C500     C      0.967700000000     0.546000000000     0.141000000000     0          
C501     C      0.974300000000     0.516600000000     0.109700000000     0          
H502     H      0.981570000000     0.493490000000     0.120540000000     0          
C503     C      0.968200000000     0.526400000000     0.052500000000     0          
H504     H      0.961960000000     0.503190000000     0.028190000000     0          
C505     C      0.971700000000     0.565400000000     0.040200000000     0          
C506     C      0.962000000000     0.590800000000     0.071300000000     0          
H507     H      0.954380000000     0.613330000000     0.059490000000     0          
C508     C      0.963500000000     0.583200000000     0.121300000000     0          
H509     H      0.961530000000     0.604430000000     0.143580000000     0          
C510     C      0.972800000000     0.573200000000     0.985900000000     0          
C511     C      0.792600000000     0.481300000000     0.977100000000     0          
C512     C      0.842200000000     0.527500000000     0.982200000000     0          
C513     C      0.645000000000     0.473000000000     0.000100000000     0          
C514     C      0.598600000000     0.447700000000     0.005000000000     0          
C515     C      0.630600000000     0.540300000000     0.975000000000     0          
O516     O      0.644000000000     0.368000000000     0.835400000000     0          
O517     O      0.713400000000     0.431000000000     0.850200000000     0          
C518     C      0.686400000000     0.396200000000     0.822600000000     0          
O519     O      0.217500000000     0.693700000000     0.115900000000     0          
C520     C      0.843800000000     0.296800000000     0.967300000000     0          
H521     H      0.844080000000     0.272380000000     0.998200000000     0          
H522     H      0.805870000000     0.281440000000     0.952010000000     0          
H523     H      0.868790000000     0.299370000000     0.935540000000     0          
H524     H      0.087080000000     0.633890000000     0.067390000000     0          
H525     H      0.071920000000     0.648060000000     0.004410000000     0          
H526     H      0.072450000000     0.591130000000     0.014210000000     0          
O527     O      0.666660000000     0.333330000000     0.057000000000     0          
O528     O      0.666660000000     0.333330000000     0.904800000000     0          
Zr529    Zr     0.288000000000     0.692100000000     0.522690000000     0          
Zr530    Zr     0.263020000000     0.622550000000     0.415160000000     0          
O531     O      0.320900000000     0.737200000000     0.585900000000     0          
O532     O      0.398600000000     0.754200000000     0.587100000000     0          
O533     O      0.295000000000     0.761800000000     0.507200000000     0          
O534     O      0.338300000000     0.790600000000     0.435100000000     0          
O535     O      0.356700000000     0.729100000000     0.494300000000     0          
O536     O      0.216300000000     0.677600000000     0.513500000000     0          
O537     O      0.280800000000     0.696900000000     0.441900000000     0          
O538     O      0.580200000000     0.203500000000     0.597500000000     0          
O539     O      0.365800000000     0.969500000000     0.468800000000     0          
O540     O      0.431600000000     0.979200000000     0.454600000000     0          
N541     N      0.139400000000     0.653900000000     0.488700000000     0          
C542     C      0.364100000000     0.760700000000     0.600800000000     0          
C543     C      0.399600000000     0.882100000000     0.694100000000     0          
C544     C      0.352500000000     0.852000000000     0.679100000000     0          
H545     H      0.328850000000     0.859180000000     0.687950000000     0          
C546     C      0.340600000000     0.811100000000     0.651100000000     0          
H547     H      0.309100000000     0.791010000000     0.641080000000     0          
C548     C      0.376000000000     0.800400000000     0.637900000000     0          
C549     C      0.423100000000     0.830500000000     0.652800000000     0          
H550     H      0.446720000000     0.823260000000     0.644010000000     0          
C551     C      0.434900000000     0.871300000000     0.680900000000     0          
H552     H      0.466460000000     0.891430000000     0.690890000000     0          
C553     C      0.414500000000     0.926900000000     0.724300000000     0          
C554     C      0.427100000000     0.968100000000     0.697300000000     0          
C555     C      0.443100000000     0.012000000000     0.723500000000     0          
C556     C      0.465800000000     0.057900000000     0.696400000000     0          
C557     C      0.509300000000     0.073400000000     0.670400000000     0          
H558     H      0.522570000000     0.053680000000     0.666830000000     0          
C559     C      0.531400000000     0.119600000000     0.650200000000     0          
H560     H      0.563610000000     0.132980000000     0.641790000000     0          
C561     C      0.512100000000     0.146500000000     0.641700000000     0          
C562     C      0.458800000000     0.119600000000     0.655300000000     0          
H563     H      0.438760000000     0.131070000000     0.645230000000     0          
C564     C      0.441600000000     0.078600000000     0.682300000000     0          
H565     H      0.409550000000     0.063840000000     0.691750000000     0          
C566     C      0.539700000000     0.184400000000     0.609200000000     0          
C567     C      0.421700000000     0.967700000000     0.641000000000     0          
C568     C      0.457700000000     0.974300000000     0.609700000000     0          
H569     H      0.488080000000     0.981570000000     0.620540000000     0          
C570     C      0.441800000000     0.968200000000     0.552500000000     0          
H571     H      0.458770000000     0.961960000000     0.528190000000     0          
C572     C      0.406300000000     0.971700000000     0.540200000000     0          
C573     C      0.371200000000     0.962000000000     0.571300000000     0          
H574     H      0.341050000000     0.954380000000     0.559490000000     0          
C575     C      0.380300000000     0.963500000000     0.621300000000     0          
H576     H      0.357100000000     0.961530000000     0.643580000000     0          
C577     C      0.399600000000     0.972800000000     0.485900000000     0          
C578     C      0.311300000000     0.792600000000     0.477100000000     0          
C579     C      0.314700000000     0.842200000000     0.482200000000     0          
C580     C      0.172000000000     0.645000000000     0.500100000000     0          
C581     C      0.150900000000     0.598600000000     0.505000000000     0          
C582     C      0.090300000000     0.630600000000     0.475000000000     0          
O583     O      0.276000000000     0.644000000000     0.335400000000     0          
O584     O      0.282400000000     0.713400000000     0.350200000000     0          
C585     C      0.290200000000     0.686400000000     0.322600000000     0          
O586     O      0.495400000000     0.192100000000     0.580300000000     0          
O587     O      0.523800000000     0.217500000000     0.615900000000     0          
C588     C      0.547000000000     0.843800000000     0.467300000000     0          
H589     H      0.571700000000     0.844080000000     0.498200000000     0          
H590     H      0.524430000000     0.805870000000     0.452010000000     0          
H591     H      0.569420000000     0.868790000000     0.435540000000     0          
H592     H      0.453190000000     0.087080000000     0.567390000000     0          
H593     H      0.423860000000     0.071920000000     0.504410000000     0          
H594     H      0.481320000000     0.072450000000     0.514210000000     0          
Zr595    Zr     0.595900000000     0.288000000000     0.022690000000     0          
Zr596    Zr     0.640470000000     0.263020000000     0.915160000000     0          
O597     O      0.583700000000     0.320900000000     0.085900000000     0          
O598     O      0.644400000000     0.398600000000     0.087100000000     0          
O599     O      0.533200000000     0.295000000000     0.007200000000     0          
O600     O      0.547700000000     0.338300000000     0.935100000000     0          
O601     O      0.627600000000     0.356700000000     0.994300000000     0          
O602     O      0.538700000000     0.216300000000     0.013500000000     0          
O603     O      0.583900000000     0.280800000000     0.941900000000     0          
O604     O      0.376700000000     0.580200000000     0.097500000000     0          
O605     O      0.396300000000     0.365800000000     0.968800000000     0          
O606     O      0.452400000000     0.431600000000     0.954600000000     0          
N607     N      0.485500000000     0.139400000000     0.988700000000     0          
C608     C      0.603400000000     0.364100000000     0.100800000000     0          
C609     C      0.517500000000     0.399600000000     0.194100000000     0          
C610     C      0.500500000000     0.352500000000     0.179100000000     0          
H611     H      0.469670000000     0.328850000000     0.187950000000     0          
C612     C      0.529500000000     0.340600000000     0.151100000000     0          
H613     H      0.518090000000     0.309100000000     0.141080000000     0          
C614     C      0.575600000000     0.376000000000     0.137900000000     0          
C615     C      0.592600000000     0.423100000000     0.152800000000     0          
H616     H      0.623460000000     0.446720000000     0.144010000000     0          
C617     C      0.563600000000     0.434900000000     0.180900000000     0          
H618     H      0.575030000000     0.466460000000     0.190890000000     0          
C619     C      0.487600000000     0.414500000000     0.224300000000     0          
C620     C      0.459000000000     0.427100000000     0.197300000000     0          
C621     C      0.431100000000     0.443100000000     0.223500000000     0          
C622     C      0.407900000000     0.465800000000     0.196400000000     0          
C623     C      0.435900000000     0.509300000000     0.170400000000     0          
H624     H      0.468890000000     0.522570000000     0.166830000000     0          
C625     C      0.411800000000     0.531400000000     0.150200000000     0          
H626     H      0.430630000000     0.563610000000     0.141790000000     0          
C627     C      0.365600000000     0.512100000000     0.141700000000     0          
C628     C      0.339200000000     0.458800000000     0.155300000000     0          
H629     H      0.307690000000     0.438760000000     0.145230000000     0          
C630     C      0.363000000000     0.441600000000     0.182300000000     0          
H631     H      0.345710000000     0.409550000000     0.191750000000     0          
C632     C      0.355300000000     0.539700000000     0.109200000000     0          
C633     C      0.454000000000     0.421700000000     0.141000000000     0          
C634     C      0.483400000000     0.457700000000     0.109700000000     0          
H635     H      0.506510000000     0.488080000000     0.120540000000     0          
C636     C      0.473600000000     0.441800000000     0.052500000000     0          
H637     H      0.496810000000     0.458770000000     0.028190000000     0          
C638     C      0.434600000000     0.406300000000     0.040200000000     0          
C639     C      0.409200000000     0.371200000000     0.071300000000     0          
H640     H      0.386670000000     0.341050000000     0.059490000000     0          
C641     C      0.416800000000     0.380300000000     0.121300000000     0          
H642     H      0.395570000000     0.357100000000     0.143580000000     0          
C643     C      0.426800000000     0.399600000000     0.985900000000     0          
C644     C      0.518700000000     0.311300000000     0.977100000000     0          
C645     C      0.472500000000     0.314700000000     0.982200000000     0          
C646     C      0.527000000000     0.172000000000     0.000100000000     0          
C647     C      0.552300000000     0.150900000000     0.005000000000     0          
C648     C      0.459700000000     0.090300000000     0.975000000000     0          
O649     O      0.632000000000     0.276000000000     0.835400000000     0          
O650     O      0.569000000000     0.282400000000     0.850200000000     0          
C651     C      0.603800000000     0.290200000000     0.822600000000     0          
O652     O      0.306300000000     0.523800000000     0.115900000000     0          
C653     C      0.703200000000     0.547000000000     0.967300000000     0          
H654     H      0.727620000000     0.571700000000     0.998200000000     0          
H655     H      0.718560000000     0.524430000000     0.952010000000     0          
H656     H      0.700630000000     0.569420000000     0.935540000000     0          
H657     H      0.366110000000     0.453190000000     0.067390000000     0          
H658     H      0.351940000000     0.423860000000     0.004410000000     0          
H659     H      0.408870000000     0.481320000000     0.014210000000     0          
Zr660    Zr     0.307900000000     0.595900000000     0.522690000000     0          
Zr661    Zr     0.377450000000     0.640470000000     0.415160000000     0          
O662     O      0.262800000000     0.583700000000     0.585900000000     0          
O663     O      0.245800000000     0.644400000000     0.587100000000     0          
O664     O      0.238200000000     0.533200000000     0.507200000000     0          
O665     O      0.209400000000     0.547700000000     0.435100000000     0          
O666     O      0.270900000000     0.627600000000     0.494300000000     0          
O667     O      0.322400000000     0.538700000000     0.513500000000     0          
O668     O      0.303100000000     0.583900000000     0.441900000000     0          
O669     O      0.796500000000     0.376700000000     0.597500000000     0          
O670     O      0.030500000000     0.396300000000     0.468800000000     0          
O671     O      0.020800000000     0.452400000000     0.454600000000     0          
N672     N      0.346100000000     0.485500000000     0.488700000000     0          
C673     C      0.239300000000     0.603400000000     0.600800000000     0          
C674     C      0.117900000000     0.517500000000     0.694100000000     0          
C675     C      0.148000000000     0.500500000000     0.679100000000     0          
H676     H      0.140820000000     0.469670000000     0.687950000000     0          
C677     C      0.188900000000     0.529500000000     0.651100000000     0          
H678     H      0.208990000000     0.518090000000     0.641080000000     0          
C679     C      0.199600000000     0.575600000000     0.637900000000     0          
C680     C      0.169500000000     0.592600000000     0.652800000000     0          
H681     H      0.176740000000     0.623460000000     0.644010000000     0          
C682     C      0.128700000000     0.563600000000     0.680900000000     0          
H683     H      0.108570000000     0.575030000000     0.690890000000     0          
C684     C      0.073100000000     0.487600000000     0.724300000000     0          
C685     C      0.031900000000     0.459000000000     0.697300000000     0          
C686     C      0.988000000000     0.431100000000     0.723500000000     0          
C687     C      0.942100000000     0.407900000000     0.696400000000     0          
C688     C      0.926600000000     0.435900000000     0.670400000000     0          
H689     H      0.946320000000     0.468890000000     0.666830000000     0          
C690     C      0.880400000000     0.411800000000     0.650200000000     0          
H691     H      0.867020000000     0.430630000000     0.641790000000     0          
C692     C      0.853500000000     0.365600000000     0.641700000000     0          
C693     C      0.880400000000     0.339200000000     0.655300000000     0          
H694     H      0.868930000000     0.307690000000     0.645230000000     0          
C695     C      0.921400000000     0.363000000000     0.682300000000     0          
H696     H      0.936160000000     0.345710000000     0.691750000000     0          
C697     C      0.815600000000     0.355300000000     0.609200000000     0          
C698     C      0.032300000000     0.454000000000     0.641000000000     0          
C699     C      0.025700000000     0.483400000000     0.609700000000     0          
H700     H      0.018430000000     0.506510000000     0.620540000000     0          
C701     C      0.031800000000     0.473600000000     0.552500000000     0          
H702     H      0.038040000000     0.496810000000     0.528190000000     0          
C703     C      0.028300000000     0.434600000000     0.540200000000     0          
C704     C      0.038000000000     0.409200000000     0.571300000000     0          
H705     H      0.045620000000     0.386670000000     0.559490000000     0          
C706     C      0.036500000000     0.416800000000     0.621300000000     0          
H707     H      0.038470000000     0.395570000000     0.643580000000     0          
C708     C      0.027200000000     0.426800000000     0.485900000000     0          
C709     C      0.207400000000     0.518700000000     0.477100000000     0          
C710     C      0.157800000000     0.472500000000     0.482200000000     0          
C711     C      0.355000000000     0.527000000000     0.500100000000     0          
C712     C      0.401400000000     0.552300000000     0.505000000000     0          
C713     C      0.369400000000     0.459700000000     0.475000000000     0          
O714     O      0.356000000000     0.632000000000     0.335400000000     0          
O715     O      0.286600000000     0.569000000000     0.350200000000     0          
C716     C      0.313600000000     0.603800000000     0.322600000000     0          
O717     O      0.782500000000     0.306300000000     0.615900000000     0          
C718     C      0.156200000000     0.703200000000     0.467300000000     0          
H719     H      0.155920000000     0.727620000000     0.498200000000     0          
H720     H      0.194130000000     0.718560000000     0.452010000000     0          
H721     H      0.131210000000     0.700630000000     0.435540000000     0          
H722     H      0.912920000000     0.366110000000     0.567390000000     0          
H723     H      0.928080000000     0.351940000000     0.504410000000     0          
H724     H      0.927550000000     0.408870000000     0.514210000000     0          
Zr725    Zr     0.712000000000     0.307900000000     0.022690000000     0          
Zr726    Zr     0.736980000000     0.377450000000     0.915160000000     0          
O727     O      0.679100000000     0.262800000000     0.085900000000     0          
O728     O      0.601400000000     0.245800000000     0.087100000000     0          
O729     O      0.705000000000     0.238200000000     0.007200000000     0          
O730     O      0.661700000000     0.209400000000     0.935100000000     0          
O731     O      0.643300000000     0.270900000000     0.994300000000     0          
O732     O      0.783700000000     0.322400000000     0.013500000000     0          
O733     O      0.719200000000     0.303100000000     0.941900000000     0          
O734     O      0.419800000000     0.796500000000     0.097500000000     0          
O735     O      0.634200000000     0.030500000000     0.968800000000     0          
O736     O      0.568400000000     0.020800000000     0.954600000000     0          
N737     N      0.860600000000     0.346100000000     0.988700000000     0          
C738     C      0.635900000000     0.239300000000     0.100800000000     0          
C739     C      0.600400000000     0.117900000000     0.194100000000     0          
C740     C      0.647500000000     0.148000000000     0.179100000000     0          
H741     H      0.671150000000     0.140820000000     0.187950000000     0          
C742     C      0.659400000000     0.188900000000     0.151100000000     0          
H743     H      0.690900000000     0.208990000000     0.141080000000     0          
C744     C      0.624000000000     0.199600000000     0.137900000000     0          
C745     C      0.576900000000     0.169500000000     0.152800000000     0          
H746     H      0.553280000000     0.176740000000     0.144010000000     0          
C747     C      0.565100000000     0.128700000000     0.180900000000     0          
H748     H      0.533540000000     0.108570000000     0.190890000000     0          
C749     C      0.585500000000     0.073100000000     0.224300000000     0          
C750     C      0.572900000000     0.031900000000     0.197300000000     0          
C751     C      0.556900000000     0.988000000000     0.223500000000     0          
C752     C      0.534200000000     0.942100000000     0.196400000000     0          
C753     C      0.490700000000     0.926600000000     0.170400000000     0          
H754     H      0.477430000000     0.946320000000     0.166830000000     0          
C755     C      0.468600000000     0.880400000000     0.150200000000     0          
H756     H      0.436390000000     0.867020000000     0.141790000000     0          
C757     C      0.487900000000     0.853500000000     0.141700000000     0          
C758     C      0.541200000000     0.880400000000     0.155300000000     0          
H759     H      0.561240000000     0.868930000000     0.145230000000     0          
C760     C      0.558400000000     0.921400000000     0.182300000000     0          
H761     H      0.590450000000     0.936160000000     0.191750000000     0          
C762     C      0.460300000000     0.815600000000     0.109200000000     0          
C763     C      0.578300000000     0.032300000000     0.141000000000     0          
C764     C      0.542300000000     0.025700000000     0.109700000000     0          
H765     H      0.511920000000     0.018430000000     0.120540000000     0          
C766     C      0.558200000000     0.031800000000     0.052500000000     0          
H767     H      0.541230000000     0.038040000000     0.028190000000     0          
C768     C      0.593700000000     0.028300000000     0.040200000000     0          
C769     C      0.628800000000     0.038000000000     0.071300000000     0          
H770     H      0.658950000000     0.045620000000     0.059490000000     0          
C771     C      0.619700000000     0.036500000000     0.121300000000     0          
H772     H      0.642900000000     0.038470000000     0.143580000000     0          
C773     C      0.600400000000     0.027200000000     0.985900000000     0          
C774     C      0.688700000000     0.207400000000     0.977100000000     0          
C775     C      0.685300000000     0.157800000000     0.982200000000     0          
C776     C      0.828000000000     0.355000000000     0.000100000000     0          
C777     C      0.849100000000     0.401400000000     0.005000000000     0          
C778     C      0.909700000000     0.369400000000     0.975000000000     0          
O779     O      0.724000000000     0.356000000000     0.835400000000     0          
O780     O      0.717600000000     0.286600000000     0.850200000000     0          
C781     C      0.709800000000     0.313600000000     0.822600000000     0          
O782     O      0.476200000000     0.782500000000     0.115900000000     0          
C783     C      0.453000000000     0.156200000000     0.967300000000     0          
H784     H      0.428300000000     0.155920000000     0.998200000000     0          
H785     H      0.475570000000     0.194130000000     0.952010000000     0          
H786     H      0.430580000000     0.131210000000     0.935540000000     0          
H787     H      0.546810000000     0.912920000000     0.067390000000     0          
H788     H      0.576140000000     0.928080000000     0.004410000000     0          
H789     H      0.518680000000     0.927550000000     0.014210000000     0          
H790     H      0.440150000000     0.279180000000     0.529460000000     0          
H791     H      0.468110000000     0.322880000000     0.477010000000     0          
H792     H      0.475310000000     0.344530000000     0.543190000000     0          
H793     H      0.160900000000     0.440190000000     0.029780000000     0          
H794     H      0.145380000000     0.467950000000     0.976940000000     0          
H795     H      0.130700000000     0.475450000000     0.042930000000     0          
H796     H      0.539220000000     0.690420000000     0.976670000000     0          
H797     H      0.520030000000     0.648610000000     0.031270000000     0          
H798     H      0.557170000000     0.714380000000     0.041710000000     0          
H799     H      0.847530000000     0.540890000000     0.477270000000     0          
H800     H      0.871640000000     0.519280000000     0.528290000000     0          
H801     H      0.843850000000     0.556250000000     0.544100000000     0          
H802     H      0.545730000000     0.691820000000     0.443900000000     0          
H803     H      0.517770000000     0.648120000000     0.496360000000     0          
H804     H      0.552930000000     0.713470000000     0.510080000000     0          
H805     H      0.854060000000     0.545560000000     0.943840000000     0          
H806     H      0.869580000000     0.517800000000     0.996680000000     0          
H807     H      0.839380000000     0.553060000000     0.009830000000     0          
H808     H      0.162960000000     0.441660000000     0.495190000000     0          
H809     H      0.138850000000     0.463280000000     0.444160000000     0          
H810     H      0.135170000000     0.478640000000     0.510990000000     0          
H811     H      0.706050000000     0.157720000000     0.016940000000     0          
H812     H      0.701220000000     0.150530000000     0.947240000000     0          
H813     H      0.646130000000     0.128730000000     0.986160000000     0          
H814     H      0.442420000000     0.279670000000     0.998160000000     0          
H815     H      0.461600000000     0.321480000000     0.943570000000     0          
H816     H      0.479560000000     0.345440000000     0.008610000000     0          
H817     H      0.705370000000     0.152560000000     0.550280000000     0          
H818     H      0.701960000000     0.156080000000     0.480540000000     0          
H819     H      0.646080000000     0.128350000000     0.518830000000     0          
H820     H      0.332280000000     0.859210000000     0.980350000000     0          
H821     H      0.337120000000     0.866400000000     0.050040000000     0          
H822     H      0.277200000000     0.837410000000     0.019270000000     0          
H823     H      0.333020000000     0.864760000000     0.447440000000     0          
H824     H      0.336430000000     0.861240000000     0.517180000000     0          
H825     H      0.277150000000     0.837030000000     0.485730000000     0          


