data_OQUFOX

_audit_creation_method RASPA-1.0
_audit_creation_date 2020-12-14
_audit_author_name 'Rocio Bueno-Perez'

_cell_length_a    34.3562
_cell_length_b    34.3562
_cell_length_c    15.0094
_cell_angle_alpha 90
_cell_angle_beta  90
_cell_angle_gamma 90
_cell_volume      17716.3

_symmetry_cell_setting          triclinic
_symmetry_space_group_name_Hall 'P 1'
_symmetry_space_group_name_H-M  'P 1'
_symmetry_Int_Tables_number     1

_symmetry_equiv_pos_as_xyz 'x,y,z'

loop_
_atom_site_label
_atom_site_type_symbol
_atom_site_fract_x
_atom_site_fract_y
_atom_site_fract_z
_atom_site_charge
F1       F      0.604800000000     0.273600000000     0.459400000000     0          
F2       F      0.577400000000     0.222200000000     0.429300000000     0          
F3       F      0.612000000000     0.248000000000     0.335300000000     0          
F4       F      0.434100000000     0.969900000000     0.430800000000     0          
O5       O      0.497700000000     0.085300000000     0.185500000000     0          
O6       O      0.550300000000     0.097900000000     0.102700000000     0          
O7       O      0.484200000000     0.400200000000     0.360400000000     0          
O8       O      0.542600000000     0.395100000000     0.419400000000     0          
O9       O      0.530200000000     0.020100000000     0.117500000000     0          
O10      O      0.439300000000     0.011500000000     0.016800000000     0          
C11      C      0.526300000000     0.106600000000     0.156300000000     0          
C12      C      0.528300000000     0.146000000000     0.198900000000     0          
C13      C      0.550900000000     0.174700000000     0.158700000000     0          
H14      H      0.569050000000     0.167430000000     0.097330000000     0          
C15      C      0.551300000000     0.212200000000     0.193500000000     0          
C16      C      0.529300000000     0.221000000000     0.268400000000     0          
C17      C      0.506700000000     0.192400000000     0.308600000000     0          
C18      C      0.506200000000     0.154900000000     0.273800000000     0          
H19      H      0.487660000000     0.131440000000     0.306710000000     0          
C20      C      0.525200000000     0.262600000000     0.301000000000     0          
C21      C      0.551500000000     0.279000000000     0.360500000000     0          
C22      C      0.547800000000     0.317800000000     0.385100000000     0          
H23      H      0.569360000000     0.331230000000     0.433960000000     0          
C24      C      0.517800000000     0.340200000000     0.350100000000     0          
C25      C      0.491500000000     0.323800000000     0.290600000000     0          
H26      H      0.466880000000     0.342190000000     0.261960000000     0          
C27      C      0.495200000000     0.285000000000     0.266000000000     0          
C28      C      0.583300000000     0.257700000000     0.393500000000     0          
C29      C      0.515400000000     0.381500000000     0.382600000000     0          
C30      C      0.467300000000     0.986000000000     0.464900000000     0          
F31      F      0.500500000000     0.218900000000     0.456800000000     0          
F32      F      0.467700000000     0.167500000000     0.429100000000     0          
F33      F      0.449800000000     0.221800000000     0.372400000000     0          
C34      C      0.481700000000     0.200600000000     0.391000000000     0          
H35      H      0.569710000000     0.235750000000     0.160520000000     0          
H36      H      0.473660000000     0.271530000000     0.217150000000     0          
F37      F      0.895200000000     0.226400000000     0.459400000000     0          
F38      F      0.922600000000     0.277800000000     0.429300000000     0          
F39      F      0.888000000000     0.252000000000     0.335300000000     0          
F40      F      0.065900000000     0.530100000000     0.430800000000     0          
O41      O      0.002300000000     0.414700000000     0.185500000000     0          
O42      O      0.949700000000     0.402100000000     0.102700000000     0          
O43      O      0.015800000000     0.099800000000     0.360400000000     0          
O44      O      0.957400000000     0.104900000000     0.419400000000     0          
O45      O      0.969800000000     0.479900000000     0.117500000000     0          
O46      O      0.060700000000     0.488500000000     0.016800000000     0          
C47      C      0.973700000000     0.393400000000     0.156300000000     0          
C48      C      0.971700000000     0.354000000000     0.198900000000     0          
C49      C      0.949100000000     0.325300000000     0.158700000000     0          
H50      H      0.930950000000     0.332570000000     0.097330000000     0          
C51      C      0.948700000000     0.287800000000     0.193500000000     0          
C52      C      0.970700000000     0.279000000000     0.268400000000     0          
C53      C      0.993300000000     0.307600000000     0.308600000000     0          
C54      C      0.993800000000     0.345100000000     0.273800000000     0          
H55      H      0.012340000000     0.368560000000     0.306710000000     0          
C56      C      0.974800000000     0.237400000000     0.301000000000     0          
C57      C      0.948500000000     0.221000000000     0.360500000000     0          
C58      C      0.952200000000     0.182200000000     0.385100000000     0          
H59      H      0.930640000000     0.168770000000     0.433960000000     0          
C60      C      0.982200000000     0.159800000000     0.350100000000     0          
C61      C      0.008500000000     0.176200000000     0.290600000000     0          
H62      H      0.033120000000     0.157810000000     0.261960000000     0          
C63      C      0.004800000000     0.215000000000     0.266000000000     0          
C64      C      0.916700000000     0.242300000000     0.393500000000     0          
C65      C      0.984600000000     0.118500000000     0.382600000000     0          
C66      C      0.032700000000     0.514000000000     0.464900000000     0          
F67      F      0.999500000000     0.281100000000     0.456800000000     0          
F68      F      0.032300000000     0.332500000000     0.429100000000     0          
F69      F      0.050200000000     0.278200000000     0.372400000000     0          
C70      C      0.018300000000     0.299400000000     0.391000000000     0          
H71      H      0.930290000000     0.264250000000     0.160520000000     0          
H72      H      0.026340000000     0.228470000000     0.217150000000     0          
F73      F      0.226400000000     0.604800000000     0.959400000000     0          
F74      F      0.277800000000     0.577400000000     0.929300000000     0          
F75      F      0.252000000000     0.612000000000     0.835300000000     0          
F76      F      0.530100000000     0.434100000000     0.930800000000     0          
O77      O      0.414700000000     0.497700000000     0.685500000000     0          
O78      O      0.402100000000     0.550300000000     0.602700000000     0          
O79      O      0.099800000000     0.484200000000     0.860400000000     0          
O80      O      0.104900000000     0.542600000000     0.919400000000     0          
O81      O      0.479900000000     0.530200000000     0.617500000000     0          
O82      O      0.488500000000     0.439300000000     0.516800000000     0          
C83      C      0.393400000000     0.526300000000     0.656300000000     0          
C84      C      0.354000000000     0.528300000000     0.698900000000     0          
C85      C      0.325300000000     0.550900000000     0.658700000000     0          
H86      H      0.332570000000     0.569050000000     0.597330000000     0          
C87      C      0.287800000000     0.551300000000     0.693500000000     0          
C88      C      0.279000000000     0.529300000000     0.768400000000     0          
C89      C      0.307600000000     0.506700000000     0.808600000000     0          
C90      C      0.345100000000     0.506200000000     0.773800000000     0          
H91      H      0.368560000000     0.487660000000     0.806710000000     0          
C92      C      0.237400000000     0.525200000000     0.801000000000     0          
C93      C      0.221000000000     0.551500000000     0.860500000000     0          
C94      C      0.182200000000     0.547800000000     0.885100000000     0          
H95      H      0.168770000000     0.569360000000     0.933960000000     0          
C96      C      0.159800000000     0.517800000000     0.850100000000     0          
C97      C      0.176200000000     0.491500000000     0.790600000000     0          
H98      H      0.157810000000     0.466880000000     0.761960000000     0          
C99      C      0.215000000000     0.495200000000     0.766000000000     0          
C100     C      0.242300000000     0.583300000000     0.893500000000     0          
C101     C      0.118500000000     0.515400000000     0.882600000000     0          
C102     C      0.514000000000     0.467300000000     0.964900000000     0          
F103     F      0.281100000000     0.500500000000     0.956800000000     0          
F104     F      0.332500000000     0.467700000000     0.929100000000     0          
F105     F      0.278200000000     0.449800000000     0.872400000000     0          
C106     C      0.299400000000     0.481700000000     0.891000000000     0          
H107     H      0.264250000000     0.569710000000     0.660520000000     0          
H108     H      0.228470000000     0.473660000000     0.717150000000     0          
F109     F      0.273600000000     0.895200000000     0.959400000000     0          
F110     F      0.222200000000     0.922600000000     0.929300000000     0          
F111     F      0.248000000000     0.888000000000     0.835300000000     0          
F112     F      0.969900000000     0.065900000000     0.930800000000     0          
O113     O      0.085300000000     0.002300000000     0.685500000000     0          
O114     O      0.097900000000     0.949700000000     0.602700000000     0          
O115     O      0.400200000000     0.015800000000     0.860400000000     0          
O116     O      0.395100000000     0.957400000000     0.919400000000     0          
O117     O      0.020100000000     0.969800000000     0.617500000000     0          
O118     O      0.011500000000     0.060700000000     0.516800000000     0          
C119     C      0.106600000000     0.973700000000     0.656300000000     0          
C120     C      0.146000000000     0.971700000000     0.698900000000     0          
C121     C      0.174700000000     0.949100000000     0.658700000000     0          
H122     H      0.167430000000     0.930950000000     0.597330000000     0          
C123     C      0.212200000000     0.948700000000     0.693500000000     0          
C124     C      0.221000000000     0.970700000000     0.768400000000     0          
C125     C      0.192400000000     0.993300000000     0.808600000000     0          
C126     C      0.154900000000     0.993800000000     0.773800000000     0          
H127     H      0.131440000000     0.012340000000     0.806710000000     0          
C128     C      0.262600000000     0.974800000000     0.801000000000     0          
C129     C      0.279000000000     0.948500000000     0.860500000000     0          
C130     C      0.317800000000     0.952200000000     0.885100000000     0          
H131     H      0.331230000000     0.930640000000     0.933960000000     0          
C132     C      0.340200000000     0.982200000000     0.850100000000     0          
C133     C      0.323800000000     0.008500000000     0.790600000000     0          
H134     H      0.342190000000     0.033120000000     0.761960000000     0          
C135     C      0.285000000000     0.004800000000     0.766000000000     0          
C136     C      0.257700000000     0.916700000000     0.893500000000     0          
C137     C      0.381500000000     0.984600000000     0.882600000000     0          
C138     C      0.986000000000     0.032700000000     0.964900000000     0          
F139     F      0.218900000000     0.999500000000     0.956800000000     0          
F140     F      0.167500000000     0.032300000000     0.929100000000     0          
F141     F      0.221800000000     0.050200000000     0.872400000000     0          
C142     C      0.200600000000     0.018300000000     0.891000000000     0          
H143     H      0.235750000000     0.930290000000     0.660520000000     0          
H144     H      0.271530000000     0.026340000000     0.717150000000     0          
F145     F      0.395200000000     0.773600000000     0.040600000000     0          
F146     F      0.422600000000     0.722200000000     0.070700000000     0          
F147     F      0.388000000000     0.748000000000     0.164700000000     0          
F148     F      0.565900000000     0.469900000000     0.069200000000     0          
O149     O      0.502300000000     0.585300000000     0.314500000000     0          
O150     O      0.449700000000     0.597900000000     0.397300000000     0          
O151     O      0.515800000000     0.900200000000     0.139600000000     0          
O152     O      0.457400000000     0.895100000000     0.080600000000     0          
O153     O      0.469800000000     0.520100000000     0.382500000000     0          
O154     O      0.560700000000     0.511500000000     0.483200000000     0          
C155     C      0.473700000000     0.606600000000     0.343700000000     0          
C156     C      0.471700000000     0.646000000000     0.301100000000     0          
C157     C      0.449100000000     0.674700000000     0.341300000000     0          
H158     H      0.430950000000     0.667430000000     0.402670000000     0          
C159     C      0.448700000000     0.712200000000     0.306500000000     0          
C160     C      0.470700000000     0.721000000000     0.231600000000     0          
C161     C      0.493300000000     0.692400000000     0.191400000000     0          
C162     C      0.493800000000     0.654900000000     0.226200000000     0          
H163     H      0.512340000000     0.631440000000     0.193290000000     0          
C164     C      0.474800000000     0.762600000000     0.199000000000     0          
C165     C      0.448500000000     0.779000000000     0.139500000000     0          
C166     C      0.452200000000     0.817800000000     0.114900000000     0          
H167     H      0.430640000000     0.831230000000     0.066040000000     0          
C168     C      0.482200000000     0.840200000000     0.149900000000     0          
C169     C      0.508500000000     0.823800000000     0.209400000000     0          
H170     H      0.533120000000     0.842190000000     0.238040000000     0          
C171     C      0.504800000000     0.785000000000     0.234000000000     0          
C172     C      0.416700000000     0.757700000000     0.106500000000     0          
C173     C      0.484600000000     0.881500000000     0.117400000000     0          
C174     C      0.532700000000     0.486000000000     0.035100000000     0          
F175     F      0.499500000000     0.718900000000     0.043200000000     0          
F176     F      0.532300000000     0.667500000000     0.070900000000     0          
F177     F      0.550200000000     0.721800000000     0.127600000000     0          
C178     C      0.518300000000     0.700600000000     0.109000000000     0          
H179     H      0.430290000000     0.735750000000     0.339480000000     0          
H180     H      0.526340000000     0.771530000000     0.282850000000     0          
F181     F      0.104800000000     0.726400000000     0.040600000000     0          
F182     F      0.077400000000     0.777800000000     0.070700000000     0          
F183     F      0.112000000000     0.752000000000     0.164700000000     0          
F184     F      0.934100000000     0.030100000000     0.069200000000     0          
O185     O      0.997700000000     0.914700000000     0.314500000000     0          
O186     O      0.050300000000     0.902100000000     0.397300000000     0          
O187     O      0.984200000000     0.599800000000     0.139600000000     0          
O188     O      0.042600000000     0.604900000000     0.080600000000     0          
O189     O      0.030200000000     0.979900000000     0.382500000000     0          
O190     O      0.939300000000     0.988500000000     0.483200000000     0          
C191     C      0.026300000000     0.893400000000     0.343700000000     0          
C192     C      0.028300000000     0.854000000000     0.301100000000     0          
C193     C      0.050900000000     0.825300000000     0.341300000000     0          
H194     H      0.069050000000     0.832570000000     0.402670000000     0          
C195     C      0.051300000000     0.787800000000     0.306500000000     0          
C196     C      0.029300000000     0.779000000000     0.231600000000     0          
C197     C      0.006700000000     0.807600000000     0.191400000000     0          
C198     C      0.006200000000     0.845100000000     0.226200000000     0          
H199     H      0.987660000000     0.868560000000     0.193290000000     0          
C200     C      0.025200000000     0.737400000000     0.199000000000     0          
C201     C      0.051500000000     0.721000000000     0.139500000000     0          
C202     C      0.047800000000     0.682200000000     0.114900000000     0          
H203     H      0.069360000000     0.668770000000     0.066040000000     0          
C204     C      0.017800000000     0.659800000000     0.149900000000     0          
C205     C      0.991500000000     0.676200000000     0.209400000000     0          
H206     H      0.966880000000     0.657810000000     0.238040000000     0          
C207     C      0.995200000000     0.715000000000     0.234000000000     0          
C208     C      0.083300000000     0.742300000000     0.106500000000     0          
C209     C      0.015400000000     0.618500000000     0.117400000000     0          
C210     C      0.967300000000     0.014000000000     0.035100000000     0          
F211     F      0.000500000000     0.781100000000     0.043200000000     0          
F212     F      0.967700000000     0.832500000000     0.070900000000     0          
F213     F      0.949800000000     0.778200000000     0.127600000000     0          
C214     C      0.981700000000     0.799400000000     0.109000000000     0          
H215     H      0.069710000000     0.764250000000     0.339480000000     0          
H216     H      0.973660000000     0.728470000000     0.282850000000     0          
F217     F      0.773600000000     0.104800000000     0.540600000000     0          
F218     F      0.722200000000     0.077400000000     0.570700000000     0          
F219     F      0.748000000000     0.112000000000     0.664700000000     0          
F220     F      0.469900000000     0.934100000000     0.569200000000     0          
O221     O      0.585300000000     0.997700000000     0.814500000000     0          
O222     O      0.597900000000     0.050300000000     0.897300000000     0          
O223     O      0.900200000000     0.984200000000     0.639600000000     0          
O224     O      0.895100000000     0.042600000000     0.580600000000     0          
O225     O      0.520100000000     0.030200000000     0.882500000000     0          
O226     O      0.511500000000     0.939300000000     0.983200000000     0          
C227     C      0.606600000000     0.026300000000     0.843700000000     0          
C228     C      0.646000000000     0.028300000000     0.801100000000     0          
C229     C      0.674700000000     0.050900000000     0.841300000000     0          
H230     H      0.667430000000     0.069050000000     0.902670000000     0          
C231     C      0.712200000000     0.051300000000     0.806500000000     0          
C232     C      0.721000000000     0.029300000000     0.731600000000     0          
C233     C      0.692400000000     0.006700000000     0.691400000000     0          
C234     C      0.654900000000     0.006200000000     0.726200000000     0          
H235     H      0.631440000000     0.987660000000     0.693290000000     0          
C236     C      0.762600000000     0.025200000000     0.699000000000     0          
C237     C      0.779000000000     0.051500000000     0.639500000000     0          
C238     C      0.817800000000     0.047800000000     0.614900000000     0          
H239     H      0.831230000000     0.069360000000     0.566040000000     0          
C240     C      0.840200000000     0.017800000000     0.649900000000     0          
C241     C      0.823800000000     0.991500000000     0.709400000000     0          
H242     H      0.842190000000     0.966880000000     0.738040000000     0          
C243     C      0.785000000000     0.995200000000     0.734000000000     0          
C244     C      0.757700000000     0.083300000000     0.606500000000     0          
C245     C      0.881500000000     0.015400000000     0.617400000000     0          
C246     C      0.486000000000     0.967300000000     0.535100000000     0          
F247     F      0.718900000000     0.000500000000     0.543200000000     0          
F248     F      0.667500000000     0.967700000000     0.570900000000     0          
F249     F      0.721800000000     0.949800000000     0.627600000000     0          
C250     C      0.700600000000     0.981700000000     0.609000000000     0          
H251     H      0.735750000000     0.069710000000     0.839480000000     0          
H252     H      0.771530000000     0.973660000000     0.782850000000     0          
F253     F      0.726400000000     0.395200000000     0.540600000000     0          
F254     F      0.777800000000     0.422600000000     0.570700000000     0          
F255     F      0.752000000000     0.388000000000     0.664700000000     0          
F256     F      0.030100000000     0.565900000000     0.569200000000     0          
O257     O      0.914700000000     0.502300000000     0.814500000000     0          
O258     O      0.902100000000     0.449700000000     0.897300000000     0          
O259     O      0.599800000000     0.515800000000     0.639600000000     0          
O260     O      0.604900000000     0.457400000000     0.580600000000     0          
O261     O      0.979900000000     0.469800000000     0.882500000000     0          
O262     O      0.988500000000     0.560700000000     0.983200000000     0          
C263     C      0.893400000000     0.473700000000     0.843700000000     0          
C264     C      0.854000000000     0.471700000000     0.801100000000     0          
C265     C      0.825300000000     0.449100000000     0.841300000000     0          
H266     H      0.832570000000     0.430950000000     0.902670000000     0          
C267     C      0.787800000000     0.448700000000     0.806500000000     0          
C268     C      0.779000000000     0.470700000000     0.731600000000     0          
C269     C      0.807600000000     0.493300000000     0.691400000000     0          
C270     C      0.845100000000     0.493800000000     0.726200000000     0          
H271     H      0.868560000000     0.512340000000     0.693290000000     0          
C272     C      0.737400000000     0.474800000000     0.699000000000     0          
C273     C      0.721000000000     0.448500000000     0.639500000000     0          
C274     C      0.682200000000     0.452200000000     0.614900000000     0          
H275     H      0.668770000000     0.430640000000     0.566040000000     0          
C276     C      0.659800000000     0.482200000000     0.649900000000     0          
C277     C      0.676200000000     0.508500000000     0.709400000000     0          
H278     H      0.657810000000     0.533120000000     0.738040000000     0          
C279     C      0.715000000000     0.504800000000     0.734000000000     0          
C280     C      0.742300000000     0.416700000000     0.606500000000     0          
C281     C      0.618500000000     0.484600000000     0.617400000000     0          
C282     C      0.014000000000     0.532700000000     0.535100000000     0          
F283     F      0.781100000000     0.499500000000     0.543200000000     0          
F284     F      0.832500000000     0.532300000000     0.570900000000     0          
F285     F      0.778200000000     0.550200000000     0.627600000000     0          
C286     C      0.799400000000     0.518300000000     0.609000000000     0          
H287     H      0.764250000000     0.430290000000     0.839480000000     0          
H288     H      0.728470000000     0.526340000000     0.782850000000     0          
F289     F      0.395200000000     0.726400000000     0.540600000000     0          
F290     F      0.422600000000     0.777800000000     0.570700000000     0          
F291     F      0.388000000000     0.752000000000     0.664700000000     0          
F292     F      0.565900000000     0.030100000000     0.569200000000     0          
O293     O      0.502300000000     0.914700000000     0.814500000000     0          
O294     O      0.449700000000     0.902100000000     0.897300000000     0          
O295     O      0.515800000000     0.599800000000     0.639600000000     0          
O296     O      0.457400000000     0.604900000000     0.580600000000     0          
O297     O      0.469800000000     0.979900000000     0.882500000000     0          
O298     O      0.560700000000     0.988500000000     0.983200000000     0          
C299     C      0.473700000000     0.893400000000     0.843700000000     0          
C300     C      0.471700000000     0.854000000000     0.801100000000     0          
C301     C      0.449100000000     0.825300000000     0.841300000000     0          
H302     H      0.430950000000     0.832570000000     0.902670000000     0          
C303     C      0.448700000000     0.787800000000     0.806500000000     0          
C304     C      0.470700000000     0.779000000000     0.731600000000     0          
C305     C      0.493300000000     0.807600000000     0.691400000000     0          
C306     C      0.493800000000     0.845100000000     0.726200000000     0          
H307     H      0.512340000000     0.868560000000     0.693290000000     0          
C308     C      0.474800000000     0.737400000000     0.699000000000     0          
C309     C      0.448500000000     0.721000000000     0.639500000000     0          
C310     C      0.452200000000     0.682200000000     0.614900000000     0          
H311     H      0.430640000000     0.668770000000     0.566040000000     0          
C312     C      0.482200000000     0.659800000000     0.649900000000     0          
C313     C      0.508500000000     0.676200000000     0.709400000000     0          
H314     H      0.533120000000     0.657810000000     0.738040000000     0          
C315     C      0.504800000000     0.715000000000     0.734000000000     0          
C316     C      0.416700000000     0.742300000000     0.606500000000     0          
C317     C      0.484600000000     0.618500000000     0.617400000000     0          
C318     C      0.532700000000     0.014000000000     0.535100000000     0          
F319     F      0.499500000000     0.781100000000     0.543200000000     0          
F320     F      0.532300000000     0.832500000000     0.570900000000     0          
F321     F      0.550200000000     0.778200000000     0.627600000000     0          
C322     C      0.518300000000     0.799400000000     0.609000000000     0          
H323     H      0.430290000000     0.764250000000     0.839480000000     0          
H324     H      0.526340000000     0.728470000000     0.782850000000     0          
F325     F      0.104800000000     0.773600000000     0.540600000000     0          
F326     F      0.077400000000     0.722200000000     0.570700000000     0          
F327     F      0.112000000000     0.748000000000     0.664700000000     0          
F328     F      0.934100000000     0.469900000000     0.569200000000     0          
O329     O      0.997700000000     0.585300000000     0.814500000000     0          
O330     O      0.050300000000     0.597900000000     0.897300000000     0          
O331     O      0.984200000000     0.900200000000     0.639600000000     0          
O332     O      0.042600000000     0.895100000000     0.580600000000     0          
O333     O      0.030200000000     0.520100000000     0.882500000000     0          
O334     O      0.939300000000     0.511500000000     0.983200000000     0          
C335     C      0.026300000000     0.606600000000     0.843700000000     0          
C336     C      0.028300000000     0.646000000000     0.801100000000     0          
C337     C      0.050900000000     0.674700000000     0.841300000000     0          
H338     H      0.069050000000     0.667430000000     0.902670000000     0          
C339     C      0.051300000000     0.712200000000     0.806500000000     0          
C340     C      0.029300000000     0.721000000000     0.731600000000     0          
C341     C      0.006700000000     0.692400000000     0.691400000000     0          
C342     C      0.006200000000     0.654900000000     0.726200000000     0          
H343     H      0.987660000000     0.631440000000     0.693290000000     0          
C344     C      0.025200000000     0.762600000000     0.699000000000     0          
C345     C      0.051500000000     0.779000000000     0.639500000000     0          
C346     C      0.047800000000     0.817800000000     0.614900000000     0          
H347     H      0.069360000000     0.831230000000     0.566040000000     0          
C348     C      0.017800000000     0.840200000000     0.649900000000     0          
C349     C      0.991500000000     0.823800000000     0.709400000000     0          
H350     H      0.966880000000     0.842190000000     0.738040000000     0          
C351     C      0.995200000000     0.785000000000     0.734000000000     0          
C352     C      0.083300000000     0.757700000000     0.606500000000     0          
C353     C      0.015400000000     0.881500000000     0.617400000000     0          
C354     C      0.967300000000     0.486000000000     0.535100000000     0          
F355     F      0.000500000000     0.718900000000     0.543200000000     0          
F356     F      0.967700000000     0.667500000000     0.570900000000     0          
F357     F      0.949800000000     0.721800000000     0.627600000000     0          
C358     C      0.981700000000     0.700600000000     0.609000000000     0          
H359     H      0.069710000000     0.735750000000     0.839480000000     0          
H360     H      0.973660000000     0.771530000000     0.782850000000     0          
F361     F      0.773600000000     0.395200000000     0.040600000000     0          
F362     F      0.722200000000     0.422600000000     0.070700000000     0          
F363     F      0.748000000000     0.388000000000     0.164700000000     0          
F364     F      0.469900000000     0.565900000000     0.069200000000     0          
O365     O      0.585300000000     0.502300000000     0.314500000000     0          
O366     O      0.597900000000     0.449700000000     0.397300000000     0          
O367     O      0.900200000000     0.515800000000     0.139600000000     0          
O368     O      0.895100000000     0.457400000000     0.080600000000     0          
O369     O      0.520100000000     0.469800000000     0.382500000000     0          
O370     O      0.511500000000     0.560700000000     0.483200000000     0          
C371     C      0.606600000000     0.473700000000     0.343700000000     0          
C372     C      0.646000000000     0.471700000000     0.301100000000     0          
C373     C      0.674700000000     0.449100000000     0.341300000000     0          
H374     H      0.667430000000     0.430950000000     0.402670000000     0          
C375     C      0.712200000000     0.448700000000     0.306500000000     0          
C376     C      0.721000000000     0.470700000000     0.231600000000     0          
C377     C      0.692400000000     0.493300000000     0.191400000000     0          
C378     C      0.654900000000     0.493800000000     0.226200000000     0          
H379     H      0.631440000000     0.512340000000     0.193290000000     0          
C380     C      0.762600000000     0.474800000000     0.199000000000     0          
C381     C      0.779000000000     0.448500000000     0.139500000000     0          
C382     C      0.817800000000     0.452200000000     0.114900000000     0          
H383     H      0.831230000000     0.430640000000     0.066040000000     0          
C384     C      0.840200000000     0.482200000000     0.149900000000     0          
C385     C      0.823800000000     0.508500000000     0.209400000000     0          
H386     H      0.842190000000     0.533120000000     0.238040000000     0          
C387     C      0.785000000000     0.504800000000     0.234000000000     0          
C388     C      0.757700000000     0.416700000000     0.106500000000     0          
C389     C      0.881500000000     0.484600000000     0.117400000000     0          
C390     C      0.486000000000     0.532700000000     0.035100000000     0          
F391     F      0.718900000000     0.499500000000     0.043200000000     0          
F392     F      0.667500000000     0.532300000000     0.070900000000     0          
F393     F      0.721800000000     0.550200000000     0.127600000000     0          
C394     C      0.700600000000     0.518300000000     0.109000000000     0          
H395     H      0.735750000000     0.430290000000     0.339480000000     0          
H396     H      0.771530000000     0.526340000000     0.282850000000     0          
F397     F      0.726400000000     0.104800000000     0.040600000000     0          
F398     F      0.777800000000     0.077400000000     0.070700000000     0          
F399     F      0.752000000000     0.112000000000     0.164700000000     0          
F400     F      0.030100000000     0.934100000000     0.069200000000     0          
O401     O      0.914700000000     0.997700000000     0.314500000000     0          
O402     O      0.902100000000     0.050300000000     0.397300000000     0          
O403     O      0.599800000000     0.984200000000     0.139600000000     0          
O404     O      0.604900000000     0.042600000000     0.080600000000     0          
O405     O      0.979900000000     0.030200000000     0.382500000000     0          
O406     O      0.988500000000     0.939300000000     0.483200000000     0          
C407     C      0.893400000000     0.026300000000     0.343700000000     0          
C408     C      0.854000000000     0.028300000000     0.301100000000     0          
C409     C      0.825300000000     0.050900000000     0.341300000000     0          
H410     H      0.832570000000     0.069050000000     0.402670000000     0          
C411     C      0.787800000000     0.051300000000     0.306500000000     0          
C412     C      0.779000000000     0.029300000000     0.231600000000     0          
C413     C      0.807600000000     0.006700000000     0.191400000000     0          
C414     C      0.845100000000     0.006200000000     0.226200000000     0          
H415     H      0.868560000000     0.987660000000     0.193290000000     0          
C416     C      0.737400000000     0.025200000000     0.199000000000     0          
C417     C      0.721000000000     0.051500000000     0.139500000000     0          
C418     C      0.682200000000     0.047800000000     0.114900000000     0          
H419     H      0.668770000000     0.069360000000     0.066040000000     0          
C420     C      0.659800000000     0.017800000000     0.149900000000     0          
C421     C      0.676200000000     0.991500000000     0.209400000000     0          
H422     H      0.657810000000     0.966880000000     0.238040000000     0          
C423     C      0.715000000000     0.995200000000     0.234000000000     0          
C424     C      0.742300000000     0.083300000000     0.106500000000     0          
C425     C      0.618500000000     0.015400000000     0.117400000000     0          
C426     C      0.014000000000     0.967300000000     0.035100000000     0          
F427     F      0.781100000000     0.000500000000     0.043200000000     0          
F428     F      0.832500000000     0.967700000000     0.070900000000     0          
F429     F      0.778200000000     0.949800000000     0.127600000000     0          
C430     C      0.799400000000     0.981700000000     0.109000000000     0          
H431     H      0.764250000000     0.069710000000     0.339480000000     0          
H432     H      0.728470000000     0.973660000000     0.282850000000     0          
F433     F      0.604800000000     0.226400000000     0.959400000000     0          
F434     F      0.577400000000     0.277800000000     0.929300000000     0          
F435     F      0.612000000000     0.252000000000     0.835300000000     0          
F436     F      0.434100000000     0.530100000000     0.930800000000     0          
O437     O      0.497700000000     0.414700000000     0.685500000000     0          
O438     O      0.550300000000     0.402100000000     0.602700000000     0          
O439     O      0.484200000000     0.099800000000     0.860400000000     0          
O440     O      0.542600000000     0.104900000000     0.919400000000     0          
O441     O      0.530200000000     0.479900000000     0.617500000000     0          
O442     O      0.439300000000     0.488500000000     0.516800000000     0          
C443     C      0.526300000000     0.393400000000     0.656300000000     0          
C444     C      0.528300000000     0.354000000000     0.698900000000     0          
C445     C      0.550900000000     0.325300000000     0.658700000000     0          
H446     H      0.569050000000     0.332570000000     0.597330000000     0          
C447     C      0.551300000000     0.287800000000     0.693500000000     0          
C448     C      0.529300000000     0.279000000000     0.768400000000     0          
C449     C      0.506700000000     0.307600000000     0.808600000000     0          
C450     C      0.506200000000     0.345100000000     0.773800000000     0          
H451     H      0.487660000000     0.368560000000     0.806710000000     0          
C452     C      0.525200000000     0.237400000000     0.801000000000     0          
C453     C      0.551500000000     0.221000000000     0.860500000000     0          
C454     C      0.547800000000     0.182200000000     0.885100000000     0          
H455     H      0.569360000000     0.168770000000     0.933960000000     0          
C456     C      0.517800000000     0.159800000000     0.850100000000     0          
C457     C      0.491500000000     0.176200000000     0.790600000000     0          
H458     H      0.466880000000     0.157810000000     0.761960000000     0          
C459     C      0.495200000000     0.215000000000     0.766000000000     0          
C460     C      0.583300000000     0.242300000000     0.893500000000     0          
C461     C      0.515400000000     0.118500000000     0.882600000000     0          
C462     C      0.467300000000     0.514000000000     0.964900000000     0          
F463     F      0.500500000000     0.281100000000     0.956800000000     0          
F464     F      0.467700000000     0.332500000000     0.929100000000     0          
F465     F      0.449800000000     0.278200000000     0.872400000000     0          
C466     C      0.481700000000     0.299400000000     0.891000000000     0          
H467     H      0.569710000000     0.264250000000     0.660520000000     0          
H468     H      0.473660000000     0.228470000000     0.717150000000     0          
F469     F      0.895200000000     0.273600000000     0.959400000000     0          
F470     F      0.922600000000     0.222200000000     0.929300000000     0          
F471     F      0.888000000000     0.248000000000     0.835300000000     0          
F472     F      0.065900000000     0.969900000000     0.930800000000     0          
O473     O      0.002300000000     0.085300000000     0.685500000000     0          
O474     O      0.949700000000     0.097900000000     0.602700000000     0          
O475     O      0.015800000000     0.400200000000     0.860400000000     0          
O476     O      0.957400000000     0.395100000000     0.919400000000     0          
O477     O      0.969800000000     0.020100000000     0.617500000000     0          
O478     O      0.060700000000     0.011500000000     0.516800000000     0          
C479     C      0.973700000000     0.106600000000     0.656300000000     0          
C480     C      0.971700000000     0.146000000000     0.698900000000     0          
C481     C      0.949100000000     0.174700000000     0.658700000000     0          
H482     H      0.930950000000     0.167430000000     0.597330000000     0          
C483     C      0.948700000000     0.212200000000     0.693500000000     0          
C484     C      0.970700000000     0.221000000000     0.768400000000     0          
C485     C      0.993300000000     0.192400000000     0.808600000000     0          
C486     C      0.993800000000     0.154900000000     0.773800000000     0          
H487     H      0.012340000000     0.131440000000     0.806710000000     0          
C488     C      0.974800000000     0.262600000000     0.801000000000     0          
C489     C      0.948500000000     0.279000000000     0.860500000000     0          
C490     C      0.952200000000     0.317800000000     0.885100000000     0          
H491     H      0.930640000000     0.331230000000     0.933960000000     0          
C492     C      0.982200000000     0.340200000000     0.850100000000     0          
C493     C      0.008500000000     0.323800000000     0.790600000000     0          
H494     H      0.033120000000     0.342190000000     0.761960000000     0          
C495     C      0.004800000000     0.285000000000     0.766000000000     0          
C496     C      0.916700000000     0.257700000000     0.893500000000     0          
C497     C      0.984600000000     0.381500000000     0.882600000000     0          
C498     C      0.032700000000     0.986000000000     0.964900000000     0          
F499     F      0.999500000000     0.218900000000     0.956800000000     0          
F500     F      0.032300000000     0.167500000000     0.929100000000     0          
F501     F      0.050200000000     0.221800000000     0.872400000000     0          
C502     C      0.018300000000     0.200600000000     0.891000000000     0          
H503     H      0.930290000000     0.235750000000     0.660520000000     0          
H504     H      0.026340000000     0.271530000000     0.717150000000     0          
F505     F      0.226400000000     0.895200000000     0.459400000000     0          
F506     F      0.277800000000     0.922600000000     0.429300000000     0          
F507     F      0.252000000000     0.888000000000     0.335300000000     0          
F508     F      0.530100000000     0.065900000000     0.430800000000     0          
O509     O      0.414700000000     0.002300000000     0.185500000000     0          
O510     O      0.402100000000     0.949700000000     0.102700000000     0          
O511     O      0.099800000000     0.015800000000     0.360400000000     0          
O512     O      0.104900000000     0.957400000000     0.419400000000     0          
O513     O      0.479900000000     0.969800000000     0.117500000000     0          
O514     O      0.488500000000     0.060700000000     0.016800000000     0          
C515     C      0.393400000000     0.973700000000     0.156300000000     0          
C516     C      0.354000000000     0.971700000000     0.198900000000     0          
C517     C      0.325300000000     0.949100000000     0.158700000000     0          
H518     H      0.332570000000     0.930950000000     0.097330000000     0          
C519     C      0.287800000000     0.948700000000     0.193500000000     0          
C520     C      0.279000000000     0.970700000000     0.268400000000     0          
C521     C      0.307600000000     0.993300000000     0.308600000000     0          
C522     C      0.345100000000     0.993800000000     0.273800000000     0          
H523     H      0.368560000000     0.012340000000     0.306710000000     0          
C524     C      0.237400000000     0.974800000000     0.301000000000     0          
C525     C      0.221000000000     0.948500000000     0.360500000000     0          
C526     C      0.182200000000     0.952200000000     0.385100000000     0          
H527     H      0.168770000000     0.930640000000     0.433960000000     0          
C528     C      0.159800000000     0.982200000000     0.350100000000     0          
C529     C      0.176200000000     0.008500000000     0.290600000000     0          
H530     H      0.157810000000     0.033120000000     0.261960000000     0          
C531     C      0.215000000000     0.004800000000     0.266000000000     0          
C532     C      0.242300000000     0.916700000000     0.393500000000     0          
C533     C      0.118500000000     0.984600000000     0.382600000000     0          
C534     C      0.514000000000     0.032700000000     0.464900000000     0          
F535     F      0.281100000000     0.999500000000     0.456800000000     0          
F536     F      0.332500000000     0.032300000000     0.429100000000     0          
F537     F      0.278200000000     0.050200000000     0.372400000000     0          
C538     C      0.299400000000     0.018300000000     0.391000000000     0          
H539     H      0.264250000000     0.930290000000     0.160520000000     0          
H540     H      0.228470000000     0.026340000000     0.217150000000     0          
F541     F      0.273600000000     0.604800000000     0.459400000000     0          
F542     F      0.222200000000     0.577400000000     0.429300000000     0          
F543     F      0.248000000000     0.612000000000     0.335300000000     0          
F544     F      0.969900000000     0.434100000000     0.430800000000     0          
O545     O      0.085300000000     0.497700000000     0.185500000000     0          
O546     O      0.097900000000     0.550300000000     0.102700000000     0          
O547     O      0.400200000000     0.484200000000     0.360400000000     0          
O548     O      0.395100000000     0.542600000000     0.419400000000     0          
O549     O      0.020100000000     0.530200000000     0.117500000000     0          
O550     O      0.011500000000     0.439300000000     0.016800000000     0          
C551     C      0.106600000000     0.526300000000     0.156300000000     0          
C552     C      0.146000000000     0.528300000000     0.198900000000     0          
C553     C      0.174700000000     0.550900000000     0.158700000000     0          
H554     H      0.167430000000     0.569050000000     0.097330000000     0          
C555     C      0.212200000000     0.551300000000     0.193500000000     0          
C556     C      0.221000000000     0.529300000000     0.268400000000     0          
C557     C      0.192400000000     0.506700000000     0.308600000000     0          
C558     C      0.154900000000     0.506200000000     0.273800000000     0          
H559     H      0.131440000000     0.487660000000     0.306710000000     0          
C560     C      0.262600000000     0.525200000000     0.301000000000     0          
C561     C      0.279000000000     0.551500000000     0.360500000000     0          
C562     C      0.317800000000     0.547800000000     0.385100000000     0          
H563     H      0.331230000000     0.569360000000     0.433960000000     0          
C564     C      0.340200000000     0.517800000000     0.350100000000     0          
C565     C      0.323800000000     0.491500000000     0.290600000000     0          
H566     H      0.342190000000     0.466880000000     0.261960000000     0          
C567     C      0.285000000000     0.495200000000     0.266000000000     0          
C568     C      0.257700000000     0.583300000000     0.393500000000     0          
C569     C      0.381500000000     0.515400000000     0.382600000000     0          
C570     C      0.986000000000     0.467300000000     0.464900000000     0          
F571     F      0.218900000000     0.500500000000     0.456800000000     0          
F572     F      0.167500000000     0.467700000000     0.429100000000     0          
F573     F      0.221800000000     0.449800000000     0.372400000000     0          
C574     C      0.200600000000     0.481700000000     0.391000000000     0          
H575     H      0.235750000000     0.569710000000     0.160520000000     0          
H576     H      0.271530000000     0.473660000000     0.217150000000     0          
Zr577    Zr     0.550450000000     0.050450000000     0.000000000000     0          
Zr578    Zr     0.949550000000     0.449550000000     0.000000000000     0          
Zr579    Zr     0.449550000000     0.550450000000     0.500000000000     0          
Zr580    Zr     0.050450000000     0.949550000000     0.500000000000     0          
Zr581    Zr     0.449550000000     0.949550000000     0.000000000000     0          
Zr582    Zr     0.050450000000     0.550450000000     0.000000000000     0          
Zr583    Zr     0.550450000000     0.449550000000     0.500000000000     0          
Zr584    Zr     0.949550000000     0.050450000000     0.500000000000     0          
Zr585    Zr     0.469210000000     0.030790000000     0.134090000000     0          
Zr586    Zr     0.541460000000     0.958540000000     0.098760000000     0          
O587     O      0.476700000000     0.023300000000     0.271900000000     0          
O588     O      0.438100000000     0.061900000000     0.355000000000     0          
C589     C      0.464700000000     0.035300000000     0.337600000000     0          
C590     C      0.479700000000     0.020300000000     0.425000000000     0          
Zr591    Zr     0.030790000000     0.469210000000     0.134090000000     0          
Zr592    Zr     0.958540000000     0.541460000000     0.098760000000     0          
O593     O      0.023300000000     0.476700000000     0.271900000000     0          
O594     O      0.061900000000     0.438100000000     0.355000000000     0          
C595     C      0.035300000000     0.464700000000     0.337600000000     0          
C596     C      0.020300000000     0.479700000000     0.425000000000     0          
Zr597    Zr     0.469210000000     0.469210000000     0.634090000000     0          
Zr598    Zr     0.541460000000     0.541460000000     0.598760000000     0          
O599     O      0.476700000000     0.476700000000     0.771900000000     0          
O600     O      0.438100000000     0.438100000000     0.855000000000     0          
C601     C      0.464700000000     0.464700000000     0.837600000000     0          
C602     C      0.479700000000     0.479700000000     0.925000000000     0          
Zr603    Zr     0.030790000000     0.030790000000     0.634090000000     0          
Zr604    Zr     0.958540000000     0.958540000000     0.598760000000     0          
O605     O      0.023300000000     0.023300000000     0.771900000000     0          
O606     O      0.061900000000     0.061900000000     0.855000000000     0          
C607     C      0.035300000000     0.035300000000     0.837600000000     0          
C608     C      0.020300000000     0.020300000000     0.925000000000     0          
Zr609    Zr     0.530790000000     0.530790000000     0.365910000000     0          
Zr610    Zr     0.458540000000     0.458540000000     0.401240000000     0          
O611     O      0.523300000000     0.523300000000     0.228100000000     0          
O612     O      0.561900000000     0.561900000000     0.145000000000     0          
C613     C      0.535300000000     0.535300000000     0.162400000000     0          
C614     C      0.520300000000     0.520300000000     0.075000000000     0          
Zr615    Zr     0.969210000000     0.969210000000     0.365910000000     0          
Zr616    Zr     0.041460000000     0.041460000000     0.401240000000     0          
O617     O      0.976700000000     0.976700000000     0.228100000000     0          
O618     O      0.938100000000     0.938100000000     0.145000000000     0          
C619     C      0.964700000000     0.964700000000     0.162400000000     0          
C620     C      0.979700000000     0.979700000000     0.075000000000     0          
Zr621    Zr     0.530790000000     0.969210000000     0.865910000000     0          
Zr622    Zr     0.458540000000     0.041460000000     0.901240000000     0          
O623     O      0.523300000000     0.976700000000     0.728100000000     0          
O624     O      0.561900000000     0.938100000000     0.645000000000     0          
C625     C      0.535300000000     0.964700000000     0.662400000000     0          
C626     C      0.520300000000     0.979700000000     0.575000000000     0          
Zr627    Zr     0.969210000000     0.530790000000     0.865910000000     0          
Zr628    Zr     0.041460000000     0.458540000000     0.901240000000     0          
O629     O      0.976700000000     0.523300000000     0.728100000000     0          
O630     O      0.938100000000     0.561900000000     0.645000000000     0          
C631     C      0.964700000000     0.535300000000     0.662400000000     0          
C632     C      0.979700000000     0.520300000000     0.575000000000     0          


