data_OXOLAP

_audit_creation_method RASPA-1.0
_audit_creation_date 2020-11-2
_audit_author_name 'Rocio Bueno-Perez'

_cell_length_a    39.845
_cell_length_b    39.845
_cell_length_c    39.845
_cell_angle_alpha 90
_cell_angle_beta  90
_cell_angle_gamma 90
_cell_volume      63258.9

_symmetry_cell_setting          cubic
_symmetry_space_group_name_Hall 'P 1'
_symmetry_space_group_name_H-M  'P 1'
_symmetry_Int_Tables_number     1

_symmetry_equiv_pos_as_xyz 'x,y,z'

loop_
_atom_site_label
_atom_site_type_symbol
_atom_site_fract_x
_atom_site_fract_y
_atom_site_fract_z
_atom_site_charge
O3       O      0.714250000000     0.124380000000     0.173720000000     0          
C3       C      0.762960000000     0.114230000000     0.221220000000     0          
H1       H      0.769200000000     0.115900000000     0.198300000000     0          
C5       C      0.787590000000     0.109100000000     0.245770000000     0          
H2       H      0.810500000000     0.107600000000     0.239300000000     0          
C9       C      0.842300000000     0.091400000000     0.381500000000     0          
H        H      0.639160000000     0.185090000000     0.338270000000     0          
Zr1      Zr     0.687210000000     0.125000000000     0.125000000000     0          
O1       O      0.654110000000     0.154110000000     0.095890000000     0          
O2       O      0.657590000000     0.092410000000     0.092410000000     0          
C1       C      0.703840000000     0.121610000000     0.203840000000     0          
C2       C      0.730130000000     0.116840000000     0.230130000000     0          
C4       C      0.779040000000     0.106200000000     0.279040000000     0          
C6       C      0.804040000000     0.101000000000     0.304040000000     0          
C7       C      0.824990000000     0.096900000000     0.324990000000     0          
C8       C      0.850110000000     0.094900000000     0.350110000000     0          
O3       O      0.875620000000     0.964250000000     0.423720000000     0          
C3       C      0.885770000000     0.012960000000     0.471220000000     0          
H1       H      0.884100000000     0.019200000000     0.448300000000     0          
C5       C      0.890900000000     0.037590000000     0.495770000000     0          
H2       H      0.892400000000     0.060500000000     0.489300000000     0          
C9       C      0.908600000000     0.092300000000     0.631500000000     0          
H        H      0.814910000000     0.889160000000     0.588270000000     0          
Zr1      Zr     0.875000000000     0.937210000000     0.375000000000     0          
O1       O      0.845890000000     0.904110000000     0.345890000000     0          
O2       O      0.907590000000     0.907590000000     0.342410000000     0          
C1       C      0.878390000000     0.953840000000     0.453840000000     0          
C2       C      0.883160000000     0.980130000000     0.480130000000     0          
C4       C      0.893800000000     0.029040000000     0.529040000000     0          
C6       C      0.899000000000     0.054040000000     0.554040000000     0          
C7       C      0.903100000000     0.074990000000     0.574990000000     0          
C8       C      0.905100000000     0.100110000000     0.600110000000     0          
O3       O      0.035750000000     0.125620000000     0.673720000000     0          
C3       C      0.987040000000     0.135770000000     0.721220000000     0          
H1       H      0.980800000000     0.134100000000     0.698300000000     0          
C5       C      0.962410000000     0.140900000000     0.745770000000     0          
H2       H      0.939500000000     0.142400000000     0.739300000000     0          
C9       C      0.907700000000     0.158600000000     0.881500000000     0          
H        H      0.110840000000     0.064910000000     0.838270000000     0          
Zr1      Zr     0.062790000000     0.125000000000     0.625000000000     0          
O1       O      0.095890000000     0.095890000000     0.595890000000     0          
O2       O      0.092410000000     0.157590000000     0.592410000000     0          
C1       C      0.046160000000     0.128390000000     0.703840000000     0          
C2       C      0.019870000000     0.133160000000     0.730130000000     0          
C4       C      0.970960000000     0.143800000000     0.779040000000     0          
C6       C      0.945960000000     0.149000000000     0.804040000000     0          
C7       C      0.925010000000     0.153100000000     0.824990000000     0          
C8       C      0.899890000000     0.155100000000     0.850110000000     0          
O3       O      0.874380000000     0.285750000000     0.923720000000     0          
C3       C      0.864230000000     0.237040000000     0.971220000000     0          
H1       H      0.865900000000     0.230800000000     0.948300000000     0          
C5       C      0.859100000000     0.212410000000     0.995770000000     0          
H2       H      0.857600000000     0.189500000000     0.989300000000     0          
C9       C      0.841400000000     0.157700000000     0.131500000000     0          
H        H      0.935090000000     0.360840000000     0.088270000000     0          
Zr1      Zr     0.875000000000     0.312790000000     0.875000000000     0          
O1       O      0.904110000000     0.345890000000     0.845890000000     0          
O2       O      0.842410000000     0.342410000000     0.842410000000     0          
C1       C      0.871610000000     0.296160000000     0.953840000000     0          
C2       C      0.866840000000     0.269870000000     0.980130000000     0          
C4       C      0.856200000000     0.220960000000     0.029040000000     0          
C6       C      0.851000000000     0.195960000000     0.054040000000     0          
C7       C      0.846900000000     0.175010000000     0.074990000000     0          
C8       C      0.844900000000     0.149890000000     0.100110000000     0          
O3       O      0.714250000000     0.125620000000     0.076280000000     0          
C3       C      0.762960000000     0.135770000000     0.028780000000     0          
H1       H      0.769200000000     0.134100000000     0.051700000000     0          
C5       C      0.787590000000     0.140900000000     0.004230000000     0          
H2       H      0.810500000000     0.142400000000     0.010700000000     0          
C9       C      0.842300000000     0.158600000000     0.868500000000     0          
H        H      0.639160000000     0.064910000000     0.911730000000     0          
O1       O      0.654110000000     0.095890000000     0.154110000000     0          
O2       O      0.657590000000     0.157590000000     0.157590000000     0          
C1       C      0.703840000000     0.128390000000     0.046160000000     0          
C2       C      0.730130000000     0.133160000000     0.019870000000     0          
C4       C      0.779040000000     0.143800000000     0.970960000000     0          
C6       C      0.804040000000     0.149000000000     0.945960000000     0          
C7       C      0.824990000000     0.153100000000     0.925010000000     0          
C8       C      0.850110000000     0.155100000000     0.899890000000     0          
O3       O      0.874380000000     0.964250000000     0.326280000000     0          
C3       C      0.864230000000     0.012960000000     0.278780000000     0          
H1       H      0.865900000000     0.019200000000     0.301700000000     0          
C5       C      0.859100000000     0.037590000000     0.254230000000     0          
H2       H      0.857600000000     0.060500000000     0.260700000000     0          
C9       C      0.841400000000     0.092300000000     0.118500000000     0          
H        H      0.935090000000     0.889160000000     0.161730000000     0          
O1       O      0.904110000000     0.904110000000     0.404110000000     0          
O2       O      0.842410000000     0.907590000000     0.407590000000     0          
C1       C      0.871610000000     0.953840000000     0.296160000000     0          
C2       C      0.866840000000     0.980130000000     0.269870000000     0          
C4       C      0.856200000000     0.029040000000     0.220960000000     0          
C6       C      0.851000000000     0.054040000000     0.195960000000     0          
C7       C      0.846900000000     0.074990000000     0.175010000000     0          
C8       C      0.844900000000     0.100110000000     0.149890000000     0          
O3       O      0.035750000000     0.124380000000     0.576280000000     0          
C3       C      0.987040000000     0.114230000000     0.528780000000     0          
H1       H      0.980800000000     0.115900000000     0.551700000000     0          
C5       C      0.962410000000     0.109100000000     0.504230000000     0          
H2       H      0.939500000000     0.107600000000     0.510700000000     0          
C9       C      0.907700000000     0.091400000000     0.368500000000     0          
H        H      0.110840000000     0.185090000000     0.411730000000     0          
O1       O      0.095890000000     0.154110000000     0.654110000000     0          
O2       O      0.092410000000     0.092410000000     0.657590000000     0          
C1       C      0.046160000000     0.121610000000     0.546160000000     0          
C2       C      0.019870000000     0.116840000000     0.519870000000     0          
C4       C      0.970960000000     0.106200000000     0.470960000000     0          
C6       C      0.945960000000     0.101000000000     0.445960000000     0          
C7       C      0.925010000000     0.096900000000     0.425010000000     0          
C8       C      0.899890000000     0.094900000000     0.399890000000     0          
O3       O      0.875620000000     0.285750000000     0.826280000000     0          
C3       C      0.885770000000     0.237040000000     0.778780000000     0          
H1       H      0.884100000000     0.230800000000     0.801700000000     0          
C5       C      0.890900000000     0.212410000000     0.754230000000     0          
H2       H      0.892400000000     0.189500000000     0.760700000000     0          
C9       C      0.908600000000     0.157700000000     0.618500000000     0          
H        H      0.814910000000     0.360840000000     0.661730000000     0          
O1       O      0.845890000000     0.345890000000     0.904110000000     0          
O2       O      0.907590000000     0.342410000000     0.907590000000     0          
C1       C      0.878390000000     0.296160000000     0.796160000000     0          
C2       C      0.883160000000     0.269870000000     0.769870000000     0          
C4       C      0.893800000000     0.220960000000     0.720960000000     0          
C6       C      0.899000000000     0.195960000000     0.695960000000     0          
C7       C      0.903100000000     0.175010000000     0.675010000000     0          
C8       C      0.905100000000     0.149890000000     0.649890000000     0          
O3       O      0.173720000000     0.714250000000     0.124380000000     0          
C3       C      0.221220000000     0.762960000000     0.114230000000     0          
H1       H      0.198300000000     0.769200000000     0.115900000000     0          
C5       C      0.245770000000     0.787590000000     0.109100000000     0          
H2       H      0.239300000000     0.810500000000     0.107600000000     0          
C9       C      0.381500000000     0.842300000000     0.091400000000     0          
H        H      0.338270000000     0.639160000000     0.185090000000     0          
Zr1      Zr     0.125000000000     0.687210000000     0.125000000000     0          
O1       O      0.095890000000     0.654110000000     0.154110000000     0          
O2       O      0.092410000000     0.657590000000     0.092410000000     0          
C1       C      0.203840000000     0.703840000000     0.121610000000     0          
C2       C      0.230130000000     0.730130000000     0.116840000000     0          
C4       C      0.279040000000     0.779040000000     0.106200000000     0          
C6       C      0.304040000000     0.804040000000     0.101000000000     0          
C7       C      0.324990000000     0.824990000000     0.096900000000     0          
C8       C      0.350110000000     0.850110000000     0.094900000000     0          
O3       O      0.285750000000     0.423720000000     0.374380000000     0          
C3       C      0.237040000000     0.471220000000     0.364230000000     0          
H1       H      0.230800000000     0.448300000000     0.365900000000     0          
C5       C      0.212410000000     0.495770000000     0.359100000000     0          
H2       H      0.189500000000     0.489300000000     0.357600000000     0          
C9       C      0.157700000000     0.631500000000     0.341400000000     0          
H        H      0.360840000000     0.588270000000     0.435090000000     0          
Zr1      Zr     0.312790000000     0.375000000000     0.375000000000     0          
O1       O      0.345890000000     0.345890000000     0.404110000000     0          
O2       O      0.342410000000     0.342410000000     0.342410000000     0          
C1       C      0.296160000000     0.453840000000     0.371610000000     0          
C2       C      0.269870000000     0.480130000000     0.366840000000     0          
C4       C      0.220960000000     0.529040000000     0.356200000000     0          
C6       C      0.195960000000     0.554040000000     0.351000000000     0          
C7       C      0.175010000000     0.574990000000     0.346900000000     0          
C8       C      0.149890000000     0.600110000000     0.344900000000     0          
O3       O      0.576280000000     0.535750000000     0.624380000000     0          
C3       C      0.528780000000     0.487040000000     0.614230000000     0          
H1       H      0.551700000000     0.480800000000     0.615900000000     0          
C5       C      0.504230000000     0.462410000000     0.609100000000     0          
H2       H      0.510700000000     0.439500000000     0.607600000000     0          
C9       C      0.368500000000     0.407700000000     0.591400000000     0          
H        H      0.411730000000     0.610840000000     0.685090000000     0          
Zr1      Zr     0.625000000000     0.562790000000     0.625000000000     0          
O1       O      0.654110000000     0.595890000000     0.654110000000     0          
O2       O      0.657590000000     0.592410000000     0.592410000000     0          
C1       C      0.546160000000     0.546160000000     0.621610000000     0          
C2       C      0.519870000000     0.519870000000     0.616840000000     0          
C4       C      0.470960000000     0.470960000000     0.606200000000     0          
C6       C      0.445960000000     0.445960000000     0.601000000000     0          
C7       C      0.425010000000     0.425010000000     0.596900000000     0          
C8       C      0.399890000000     0.399890000000     0.594900000000     0          
O3       O      0.464250000000     0.826280000000     0.874380000000     0          
C3       C      0.512960000000     0.778780000000     0.864230000000     0          
H1       H      0.519200000000     0.801700000000     0.865900000000     0          
C5       C      0.537590000000     0.754230000000     0.859100000000     0          
H2       H      0.560500000000     0.760700000000     0.857600000000     0          
C9       C      0.592300000000     0.618500000000     0.841400000000     0          
H        H      0.389160000000     0.661730000000     0.935090000000     0          
Zr1      Zr     0.437210000000     0.875000000000     0.875000000000     0          
O1       O      0.404110000000     0.904110000000     0.904110000000     0          
O2       O      0.407590000000     0.907590000000     0.842410000000     0          
C1       C      0.453840000000     0.796160000000     0.871610000000     0          
C2       C      0.480130000000     0.769870000000     0.866840000000     0          
C4       C      0.529040000000     0.720960000000     0.856200000000     0          
C6       C      0.554040000000     0.695960000000     0.851000000000     0          
C7       C      0.574990000000     0.675010000000     0.846900000000     0          
C8       C      0.600110000000     0.649890000000     0.844900000000     0          
O3       O      0.173720000000     0.535750000000     0.125620000000     0          
C3       C      0.221220000000     0.487040000000     0.135770000000     0          
H1       H      0.198300000000     0.480800000000     0.134100000000     0          
C5       C      0.245770000000     0.462410000000     0.140900000000     0          
H2       H      0.239300000000     0.439500000000     0.142400000000     0          
C9       C      0.381500000000     0.407700000000     0.158600000000     0          
H        H      0.338270000000     0.610840000000     0.064910000000     0          
Zr1      Zr     0.125000000000     0.562790000000     0.125000000000     0          
O1       O      0.095890000000     0.595890000000     0.095890000000     0          
O2       O      0.092410000000     0.592410000000     0.157590000000     0          
C1       C      0.203840000000     0.546160000000     0.128390000000     0          
C2       C      0.230130000000     0.519870000000     0.133160000000     0          
C4       C      0.279040000000     0.470960000000     0.143800000000     0          
C6       C      0.304040000000     0.445960000000     0.149000000000     0          
C7       C      0.324990000000     0.425010000000     0.153100000000     0          
C8       C      0.350110000000     0.399890000000     0.155100000000     0          
O3       O      0.464250000000     0.423720000000     0.375620000000     0          
C3       C      0.512960000000     0.471220000000     0.385770000000     0          
H1       H      0.519200000000     0.448300000000     0.384100000000     0          
C5       C      0.537590000000     0.495770000000     0.390900000000     0          
H2       H      0.560500000000     0.489300000000     0.392400000000     0          
C9       C      0.592300000000     0.631500000000     0.408600000000     0          
H        H      0.389160000000     0.588270000000     0.314910000000     0          
Zr1      Zr     0.437210000000     0.375000000000     0.375000000000     0          
O1       O      0.404110000000     0.345890000000     0.345890000000     0          
O2       O      0.407590000000     0.342410000000     0.407590000000     0          
C1       C      0.453840000000     0.453840000000     0.378390000000     0          
C2       C      0.480130000000     0.480130000000     0.383160000000     0          
C4       C      0.529040000000     0.529040000000     0.393800000000     0          
C6       C      0.554040000000     0.554040000000     0.399000000000     0          
C7       C      0.574990000000     0.574990000000     0.403100000000     0          
C8       C      0.600110000000     0.600110000000     0.405100000000     0          
O3       O      0.576280000000     0.714250000000     0.625620000000     0          
C3       C      0.528780000000     0.762960000000     0.635770000000     0          
H1       H      0.551700000000     0.769200000000     0.634100000000     0          
C5       C      0.504230000000     0.787590000000     0.640900000000     0          
H2       H      0.510700000000     0.810500000000     0.642400000000     0          
C9       C      0.368500000000     0.842300000000     0.658600000000     0          
H        H      0.411730000000     0.639160000000     0.564910000000     0          
Zr1      Zr     0.625000000000     0.687210000000     0.625000000000     0          
O1       O      0.654110000000     0.654110000000     0.595890000000     0          
O2       O      0.657590000000     0.657590000000     0.657590000000     0          
C1       C      0.546160000000     0.703840000000     0.628390000000     0          
C2       C      0.519870000000     0.730130000000     0.633160000000     0          
C4       C      0.470960000000     0.779040000000     0.643800000000     0          
C6       C      0.445960000000     0.804040000000     0.649000000000     0          
C7       C      0.425010000000     0.824990000000     0.653100000000     0          
C8       C      0.399890000000     0.850110000000     0.655100000000     0          
O3       O      0.285750000000     0.826280000000     0.875620000000     0          
C3       C      0.237040000000     0.778780000000     0.885770000000     0          
H1       H      0.230800000000     0.801700000000     0.884100000000     0          
C5       C      0.212410000000     0.754230000000     0.890900000000     0          
H2       H      0.189500000000     0.760700000000     0.892400000000     0          
C9       C      0.157700000000     0.618500000000     0.908600000000     0          
H        H      0.360840000000     0.661730000000     0.814910000000     0          
Zr1      Zr     0.312790000000     0.875000000000     0.875000000000     0          
O1       O      0.345890000000     0.904110000000     0.845890000000     0          
O2       O      0.342410000000     0.907590000000     0.907590000000     0          
C1       C      0.296160000000     0.796160000000     0.878390000000     0          
C2       C      0.269870000000     0.769870000000     0.883160000000     0          
C4       C      0.220960000000     0.720960000000     0.893800000000     0          
C6       C      0.195960000000     0.695960000000     0.899000000000     0          
C7       C      0.175010000000     0.675010000000     0.903100000000     0          
C8       C      0.149890000000     0.649890000000     0.905100000000     0          
O3       O      0.124380000000     0.173720000000     0.714250000000     0          
C3       C      0.114230000000     0.221220000000     0.762960000000     0          
H1       H      0.115900000000     0.198300000000     0.769200000000     0          
C5       C      0.109100000000     0.245770000000     0.787590000000     0          
H2       H      0.107600000000     0.239300000000     0.810500000000     0          
C9       C      0.091400000000     0.381500000000     0.842300000000     0          
H        H      0.185090000000     0.338270000000     0.639160000000     0          
Zr1      Zr     0.125000000000     0.125000000000     0.687210000000     0          
O1       O      0.154110000000     0.095890000000     0.654110000000     0          
C1       C      0.121610000000     0.203840000000     0.703840000000     0          
C2       C      0.116840000000     0.230130000000     0.730130000000     0          
C4       C      0.106200000000     0.279040000000     0.779040000000     0          
C6       C      0.101000000000     0.304040000000     0.804040000000     0          
C7       C      0.096900000000     0.324990000000     0.824990000000     0          
C8       C      0.094900000000     0.350110000000     0.850110000000     0          
O3       O      0.624380000000     0.576280000000     0.535750000000     0          
C3       C      0.614230000000     0.528780000000     0.487040000000     0          
H1       H      0.615900000000     0.551700000000     0.480800000000     0          
C5       C      0.609100000000     0.504230000000     0.462410000000     0          
H2       H      0.607600000000     0.510700000000     0.439500000000     0          
C9       C      0.591400000000     0.368500000000     0.407700000000     0          
H        H      0.685090000000     0.411730000000     0.610840000000     0          
Zr1      Zr     0.625000000000     0.625000000000     0.562790000000     0          
O2       O      0.592410000000     0.657590000000     0.592410000000     0          
C1       C      0.621610000000     0.546160000000     0.546160000000     0          
C2       C      0.616840000000     0.519870000000     0.519870000000     0          
C4       C      0.606200000000     0.470960000000     0.470960000000     0          
C6       C      0.601000000000     0.445960000000     0.445960000000     0          
C7       C      0.596900000000     0.425010000000     0.425010000000     0          
C8       C      0.594900000000     0.399890000000     0.399890000000     0          
O3       O      0.423720000000     0.874380000000     0.785750000000     0          
C3       C      0.471220000000     0.864230000000     0.737040000000     0          
H1       H      0.448300000000     0.865900000000     0.730800000000     0          
C5       C      0.495770000000     0.859100000000     0.712410000000     0          
H2       H      0.489300000000     0.857600000000     0.689500000000     0          
C9       C      0.631500000000     0.841400000000     0.657700000000     0          
H        H      0.588270000000     0.935090000000     0.860840000000     0          
Zr1      Zr     0.375000000000     0.875000000000     0.812790000000     0          
O2       O      0.342410000000     0.842410000000     0.842410000000     0          
C1       C      0.453840000000     0.871610000000     0.796160000000     0          
C2       C      0.480130000000     0.866840000000     0.769870000000     0          
C4       C      0.529040000000     0.856200000000     0.720960000000     0          
C6       C      0.554040000000     0.851000000000     0.695960000000     0          
C7       C      0.574990000000     0.846900000000     0.675010000000     0          
C8       C      0.600110000000     0.844900000000     0.649890000000     0          
O3       O      0.125620000000     0.673720000000     0.035750000000     0          
C3       C      0.135770000000     0.721220000000     0.987040000000     0          
H1       H      0.134100000000     0.698300000000     0.980800000000     0          
C5       C      0.140900000000     0.745770000000     0.962410000000     0          
H2       H      0.142400000000     0.739300000000     0.939500000000     0          
C9       C      0.158600000000     0.881500000000     0.907700000000     0          
H        H      0.064910000000     0.838270000000     0.110840000000     0          
Zr1      Zr     0.125000000000     0.625000000000     0.062790000000     0          
O2       O      0.157590000000     0.592410000000     0.092410000000     0          
C1       C      0.128390000000     0.703840000000     0.046160000000     0          
C2       C      0.133160000000     0.730130000000     0.019870000000     0          
C4       C      0.143800000000     0.779040000000     0.970960000000     0          
C6       C      0.149000000000     0.804040000000     0.945960000000     0          
C7       C      0.153100000000     0.824990000000     0.925010000000     0          
C8       C      0.155100000000     0.850110000000     0.899890000000     0          
O3       O      0.826280000000     0.375620000000     0.785750000000     0          
C3       C      0.778780000000     0.385770000000     0.737040000000     0          
H1       H      0.801700000000     0.384100000000     0.730800000000     0          
C5       C      0.754230000000     0.390900000000     0.712410000000     0          
H2       H      0.760700000000     0.392400000000     0.689500000000     0          
C9       C      0.618500000000     0.408600000000     0.657700000000     0          
H        H      0.661730000000     0.314910000000     0.860840000000     0          
Zr1      Zr     0.875000000000     0.375000000000     0.812790000000     0          
O2       O      0.907590000000     0.407590000000     0.842410000000     0          
C1       C      0.796160000000     0.378390000000     0.796160000000     0          
C2       C      0.769870000000     0.383160000000     0.769870000000     0          
C4       C      0.720960000000     0.393800000000     0.720960000000     0          
C6       C      0.695960000000     0.399000000000     0.695960000000     0          
C7       C      0.675010000000     0.403100000000     0.675010000000     0          
C8       C      0.649890000000     0.405100000000     0.649890000000     0          
O3       O      0.125620000000     0.076280000000     0.714250000000     0          
C3       C      0.135770000000     0.028780000000     0.762960000000     0          
H1       H      0.134100000000     0.051700000000     0.769200000000     0          
C5       C      0.140900000000     0.004230000000     0.787590000000     0          
H2       H      0.142400000000     0.010700000000     0.810500000000     0          
C9       C      0.158600000000     0.868500000000     0.842300000000     0          
H        H      0.064910000000     0.911730000000     0.639160000000     0          
O2       O      0.157590000000     0.157590000000     0.657590000000     0          
C1       C      0.128390000000     0.046160000000     0.703840000000     0          
C2       C      0.133160000000     0.019870000000     0.730130000000     0          
C4       C      0.143800000000     0.970960000000     0.779040000000     0          
C6       C      0.149000000000     0.945960000000     0.804040000000     0          
C7       C      0.153100000000     0.925010000000     0.824990000000     0          
C8       C      0.155100000000     0.899890000000     0.850110000000     0          
O3       O      0.423720000000     0.875620000000     0.964250000000     0          
C3       C      0.471220000000     0.885770000000     0.012960000000     0          
H1       H      0.448300000000     0.884100000000     0.019200000000     0          
C5       C      0.495770000000     0.890900000000     0.037590000000     0          
H2       H      0.489300000000     0.892400000000     0.060500000000     0          
C9       C      0.631500000000     0.908600000000     0.092300000000     0          
H        H      0.588270000000     0.814910000000     0.889160000000     0          
Zr1      Zr     0.375000000000     0.875000000000     0.937210000000     0          
O1       O      0.345890000000     0.845890000000     0.904110000000     0          
C1       C      0.453840000000     0.878390000000     0.953840000000     0          
C2       C      0.480130000000     0.883160000000     0.980130000000     0          
C4       C      0.529040000000     0.893800000000     0.029040000000     0          
C6       C      0.554040000000     0.899000000000     0.054040000000     0          
C7       C      0.574990000000     0.903100000000     0.074990000000     0          
C8       C      0.600110000000     0.905100000000     0.100110000000     0          
O3       O      0.326280000000     0.374380000000     0.464250000000     0          
C3       C      0.278780000000     0.364230000000     0.512960000000     0          
H1       H      0.301700000000     0.365900000000     0.519200000000     0          
C5       C      0.254230000000     0.359100000000     0.537590000000     0          
H2       H      0.260700000000     0.357600000000     0.560500000000     0          
C9       C      0.118500000000     0.341400000000     0.592300000000     0          
H        H      0.161730000000     0.435090000000     0.389160000000     0          
Zr1      Zr     0.375000000000     0.375000000000     0.437210000000     0          
O1       O      0.404110000000     0.404110000000     0.404110000000     0          
C1       C      0.296160000000     0.371610000000     0.453840000000     0          
C2       C      0.269870000000     0.366840000000     0.480130000000     0          
C4       C      0.220960000000     0.356200000000     0.529040000000     0          
C6       C      0.195960000000     0.351000000000     0.554040000000     0          
C7       C      0.175010000000     0.346900000000     0.574990000000     0          
C8       C      0.149890000000     0.344900000000     0.600110000000     0          
O3       O      0.285750000000     0.875620000000     0.826280000000     0          
C3       C      0.237040000000     0.885770000000     0.778780000000     0          
H1       H      0.230800000000     0.884100000000     0.801700000000     0          
C5       C      0.212410000000     0.890900000000     0.754230000000     0          
H2       H      0.189500000000     0.892400000000     0.760700000000     0          
C9       C      0.157700000000     0.908600000000     0.618500000000     0          
H        H      0.360840000000     0.814910000000     0.661730000000     0          
C1       C      0.296160000000     0.878390000000     0.796160000000     0          
C2       C      0.269870000000     0.883160000000     0.769870000000     0          
C4       C      0.220960000000     0.893800000000     0.720960000000     0          
C6       C      0.195960000000     0.899000000000     0.695960000000     0          
C7       C      0.175010000000     0.903100000000     0.675010000000     0          
C8       C      0.149890000000     0.905100000000     0.649890000000     0          
O3       O      0.124380000000     0.035750000000     0.576280000000     0          
C3       C      0.114230000000     0.987040000000     0.528780000000     0          
H1       H      0.115900000000     0.980800000000     0.551700000000     0          
C5       C      0.109100000000     0.962410000000     0.504230000000     0          
H2       H      0.107600000000     0.939500000000     0.510700000000     0          
C9       C      0.091400000000     0.907700000000     0.368500000000     0          
H        H      0.185090000000     0.110840000000     0.411730000000     0          
Zr1      Zr     0.125000000000     0.062790000000     0.625000000000     0          
C1       C      0.121610000000     0.046160000000     0.546160000000     0          
C2       C      0.116840000000     0.019870000000     0.519870000000     0          
C4       C      0.106200000000     0.970960000000     0.470960000000     0          
C6       C      0.101000000000     0.945960000000     0.445960000000     0          
C7       C      0.096900000000     0.925010000000     0.425010000000     0          
C8       C      0.094900000000     0.899890000000     0.399890000000     0          
O3       O      0.964250000000     0.874380000000     0.326280000000     0          
C3       C      0.012960000000     0.864230000000     0.278780000000     0          
H1       H      0.019200000000     0.865900000000     0.301700000000     0          
C5       C      0.037590000000     0.859100000000     0.254230000000     0          
H2       H      0.060500000000     0.857600000000     0.260700000000     0          
C9       C      0.092300000000     0.841400000000     0.118500000000     0          
H        H      0.889160000000     0.935090000000     0.161730000000     0          
Zr1      Zr     0.937210000000     0.875000000000     0.375000000000     0          
O2       O      0.907590000000     0.842410000000     0.407590000000     0          
C1       C      0.953840000000     0.871610000000     0.296160000000     0          
C2       C      0.980130000000     0.866840000000     0.269870000000     0          
C4       C      0.029040000000     0.856200000000     0.220960000000     0          
C6       C      0.054040000000     0.851000000000     0.195960000000     0          
C7       C      0.074990000000     0.846900000000     0.175010000000     0          
C8       C      0.100110000000     0.844900000000     0.149890000000     0          
O3       O      0.125620000000     0.714250000000     0.076280000000     0          
C3       C      0.135770000000     0.762960000000     0.028780000000     0          
H1       H      0.134100000000     0.769200000000     0.051700000000     0          
C5       C      0.140900000000     0.787590000000     0.004230000000     0          
H2       H      0.142400000000     0.810500000000     0.010700000000     0          
C9       C      0.158600000000     0.842300000000     0.868500000000     0          
H        H      0.064910000000     0.639160000000     0.911730000000     0          
O2       O      0.157590000000     0.657590000000     0.157590000000     0          
O3       O      0.285750000000     0.874380000000     0.923720000000     0          
C3       C      0.237040000000     0.864230000000     0.971220000000     0          
H1       H      0.230800000000     0.865900000000     0.948300000000     0          
C5       C      0.212410000000     0.859100000000     0.995770000000     0          
H2       H      0.189500000000     0.857600000000     0.989300000000     0          
C9       C      0.157700000000     0.841400000000     0.131500000000     0          
H        H      0.360840000000     0.935090000000     0.088270000000     0          
C1       C      0.296160000000     0.871610000000     0.953840000000     0          
C2       C      0.269870000000     0.866840000000     0.980130000000     0          
C4       C      0.220960000000     0.856200000000     0.029040000000     0          
C6       C      0.195960000000     0.851000000000     0.054040000000     0          
C7       C      0.175010000000     0.846900000000     0.074990000000     0          
C8       C      0.149890000000     0.844900000000     0.100110000000     0          
O3       O      0.125620000000     0.035750000000     0.673720000000     0          
C3       C      0.135770000000     0.987040000000     0.721220000000     0          
H1       H      0.134100000000     0.980800000000     0.698300000000     0          
C5       C      0.140900000000     0.962410000000     0.745770000000     0          
H2       H      0.142400000000     0.939500000000     0.739300000000     0          
C9       C      0.158600000000     0.907700000000     0.881500000000     0          
H        H      0.064910000000     0.110840000000     0.838270000000     0          
O2       O      0.157590000000     0.092410000000     0.592410000000     0          
O3       O      0.964250000000     0.875620000000     0.423720000000     0          
C3       C      0.012960000000     0.885770000000     0.471220000000     0          
H1       H      0.019200000000     0.884100000000     0.448300000000     0          
C5       C      0.037590000000     0.890900000000     0.495770000000     0          
H2       H      0.060500000000     0.892400000000     0.489300000000     0          
C9       C      0.092300000000     0.908600000000     0.631500000000     0          
H        H      0.889160000000     0.814910000000     0.588270000000     0          
O1       O      0.904110000000     0.845890000000     0.345890000000     0          
C1       C      0.953840000000     0.878390000000     0.453840000000     0          
C2       C      0.980130000000     0.883160000000     0.480130000000     0          
C4       C      0.029040000000     0.893800000000     0.529040000000     0          
C6       C      0.054040000000     0.899000000000     0.554040000000     0          
C7       C      0.074990000000     0.903100000000     0.574990000000     0          
C8       C      0.100110000000     0.905100000000     0.600110000000     0          
O3       O      0.124380000000     0.714250000000     0.173720000000     0          
C3       C      0.114230000000     0.762960000000     0.221220000000     0          
H1       H      0.115900000000     0.769200000000     0.198300000000     0          
C5       C      0.109100000000     0.787590000000     0.245770000000     0          
H2       H      0.107600000000     0.810500000000     0.239300000000     0          
C9       C      0.091400000000     0.842300000000     0.381500000000     0          
H        H      0.185090000000     0.639160000000     0.338270000000     0          
O1       O      0.154110000000     0.654110000000     0.095890000000     0          
C1       C      0.121610000000     0.703840000000     0.203840000000     0          
C2       C      0.116840000000     0.730130000000     0.230130000000     0          
C4       C      0.106200000000     0.779040000000     0.279040000000     0          
C6       C      0.101000000000     0.804040000000     0.304040000000     0          
C7       C      0.096900000000     0.824990000000     0.324990000000     0          
C8       C      0.094900000000     0.850110000000     0.350110000000     0          
O3       O      0.826280000000     0.285750000000     0.875620000000     0          
C3       C      0.778780000000     0.237040000000     0.885770000000     0          
H1       H      0.801700000000     0.230800000000     0.884100000000     0          
C5       C      0.754230000000     0.212410000000     0.890900000000     0          
H2       H      0.760700000000     0.189500000000     0.892400000000     0          
C9       C      0.618500000000     0.157700000000     0.908600000000     0          
H        H      0.661730000000     0.360840000000     0.814910000000     0          
C1       C      0.796160000000     0.296160000000     0.878390000000     0          
C2       C      0.769870000000     0.269870000000     0.883160000000     0          
C4       C      0.720960000000     0.220960000000     0.893800000000     0          
C6       C      0.695960000000     0.195960000000     0.899000000000     0          
C7       C      0.675010000000     0.175010000000     0.903100000000     0          
C8       C      0.649890000000     0.149890000000     0.905100000000     0          
O3       O      0.714250000000     0.576280000000     0.625620000000     0          
C3       C      0.762960000000     0.528780000000     0.635770000000     0          
H1       H      0.769200000000     0.551700000000     0.634100000000     0          
C5       C      0.787590000000     0.504230000000     0.640900000000     0          
H2       H      0.810500000000     0.510700000000     0.642400000000     0          
C9       C      0.842300000000     0.368500000000     0.658600000000     0          
H        H      0.639160000000     0.411730000000     0.564910000000     0          
Zr1      Zr     0.687210000000     0.625000000000     0.625000000000     0          
C1       C      0.703840000000     0.546160000000     0.628390000000     0          
C2       C      0.730130000000     0.519870000000     0.633160000000     0          
C4       C      0.779040000000     0.470960000000     0.643800000000     0          
C6       C      0.804040000000     0.445960000000     0.649000000000     0          
C7       C      0.824990000000     0.425010000000     0.653100000000     0          
C8       C      0.850110000000     0.399890000000     0.655100000000     0          
O3       O      0.423720000000     0.464250000000     0.375620000000     0          
C3       C      0.471220000000     0.512960000000     0.385770000000     0          
H1       H      0.448300000000     0.519200000000     0.384100000000     0          
C5       C      0.495770000000     0.537590000000     0.390900000000     0          
H2       H      0.489300000000     0.560500000000     0.392400000000     0          
C9       C      0.631500000000     0.592300000000     0.408600000000     0          
H        H      0.588270000000     0.389160000000     0.314910000000     0          
Zr1      Zr     0.375000000000     0.437210000000     0.375000000000     0          
O1       O      0.345890000000     0.404110000000     0.345890000000     0          
O2       O      0.342410000000     0.407590000000     0.407590000000     0          
O3       O      0.535750000000     0.173720000000     0.125620000000     0          
C3       C      0.487040000000     0.221220000000     0.135770000000     0          
H1       H      0.480800000000     0.198300000000     0.134100000000     0          
C5       C      0.462410000000     0.245770000000     0.140900000000     0          
H2       H      0.439500000000     0.239300000000     0.142400000000     0          
C9       C      0.407700000000     0.381500000000     0.158600000000     0          
H        H      0.610840000000     0.338270000000     0.064910000000     0          
Zr1      Zr     0.562790000000     0.125000000000     0.125000000000     0          
O1       O      0.595890000000     0.095890000000     0.095890000000     0          
O2       O      0.592410000000     0.092410000000     0.157590000000     0          
C1       C      0.546160000000     0.203840000000     0.128390000000     0          
C2       C      0.519870000000     0.230130000000     0.133160000000     0          
C4       C      0.470960000000     0.279040000000     0.143800000000     0          
C6       C      0.445960000000     0.304040000000     0.149000000000     0          
C7       C      0.425010000000     0.324990000000     0.153100000000     0          
C8       C      0.399890000000     0.350110000000     0.155100000000     0          
O3       O      0.826280000000     0.464250000000     0.874380000000     0          
C3       C      0.778780000000     0.512960000000     0.864230000000     0          
H1       H      0.801700000000     0.519200000000     0.865900000000     0          
C5       C      0.754230000000     0.537590000000     0.859100000000     0          
H2       H      0.760700000000     0.560500000000     0.857600000000     0          
C9       C      0.618500000000     0.592300000000     0.841400000000     0          
H        H      0.661730000000     0.389160000000     0.935090000000     0          
Zr1      Zr     0.875000000000     0.437210000000     0.875000000000     0          
O1       O      0.904110000000     0.404110000000     0.904110000000     0          
C1       C      0.796160000000     0.453840000000     0.871610000000     0          
C2       C      0.769870000000     0.480130000000     0.866840000000     0          
C4       C      0.720960000000     0.529040000000     0.856200000000     0          
C6       C      0.695960000000     0.554040000000     0.851000000000     0          
C7       C      0.675010000000     0.574990000000     0.846900000000     0          
C8       C      0.649890000000     0.600110000000     0.844900000000     0          
O3       O      0.535750000000     0.576280000000     0.624380000000     0          
C3       C      0.487040000000     0.528780000000     0.614230000000     0          
H1       H      0.480800000000     0.551700000000     0.615900000000     0          
C5       C      0.462410000000     0.504230000000     0.609100000000     0          
H2       H      0.439500000000     0.510700000000     0.607600000000     0          
C9       C      0.407700000000     0.368500000000     0.591400000000     0          
H        H      0.610840000000     0.411730000000     0.685090000000     0          
Zr1      Zr     0.562790000000     0.625000000000     0.625000000000     0          
O1       O      0.595890000000     0.654110000000     0.654110000000     0          
O3       O      0.423720000000     0.285750000000     0.374380000000     0          
C3       C      0.471220000000     0.237040000000     0.364230000000     0          
H1       H      0.448300000000     0.230800000000     0.365900000000     0          
C5       C      0.495770000000     0.212410000000     0.359100000000     0          
H2       H      0.489300000000     0.189500000000     0.357600000000     0          
C9       C      0.631500000000     0.157700000000     0.341400000000     0          
H        H      0.588270000000     0.360840000000     0.435090000000     0          
Zr1      Zr     0.375000000000     0.312790000000     0.375000000000     0          
C1       C      0.453840000000     0.296160000000     0.371610000000     0          
C2       C      0.480130000000     0.269870000000     0.366840000000     0          
C4       C      0.529040000000     0.220960000000     0.356200000000     0          
C6       C      0.554040000000     0.195960000000     0.351000000000     0          
C7       C      0.574990000000     0.175010000000     0.346900000000     0          
C8       C      0.600110000000     0.149890000000     0.344900000000     0          
O3       O      0.714250000000     0.173720000000     0.124380000000     0          
C3       C      0.762960000000     0.221220000000     0.114230000000     0          
H1       H      0.769200000000     0.198300000000     0.115900000000     0          
C5       C      0.787590000000     0.245770000000     0.109100000000     0          
H2       H      0.810500000000     0.239300000000     0.107600000000     0          
C9       C      0.842300000000     0.381500000000     0.091400000000     0          
H        H      0.639160000000     0.338270000000     0.185090000000     0          
C1       C      0.703840000000     0.203840000000     0.121610000000     0          
C2       C      0.730130000000     0.230130000000     0.116840000000     0          
C4       C      0.779040000000     0.279040000000     0.106200000000     0          
C6       C      0.804040000000     0.304040000000     0.101000000000     0          
C7       C      0.824990000000     0.324990000000     0.096900000000     0          
C8       C      0.850110000000     0.350110000000     0.094900000000     0          
O3       O      0.875620000000     0.826280000000     0.285750000000     0          
C3       C      0.885770000000     0.778780000000     0.237040000000     0          
H1       H      0.884100000000     0.801700000000     0.230800000000     0          
C5       C      0.890900000000     0.754230000000     0.212410000000     0          
H2       H      0.892400000000     0.760700000000     0.189500000000     0          
C9       C      0.908600000000     0.618500000000     0.157700000000     0          
H        H      0.814910000000     0.661730000000     0.360840000000     0          
Zr1      Zr     0.875000000000     0.875000000000     0.312790000000     0          
C1       C      0.878390000000     0.796160000000     0.296160000000     0          
C2       C      0.883160000000     0.769870000000     0.269870000000     0          
C4       C      0.893800000000     0.720960000000     0.220960000000     0          
C6       C      0.899000000000     0.695960000000     0.195960000000     0          
C7       C      0.903100000000     0.675010000000     0.175010000000     0          
C8       C      0.905100000000     0.649890000000     0.149890000000     0          
O3       O      0.375620000000     0.423720000000     0.464250000000     0          
C3       C      0.385770000000     0.471220000000     0.512960000000     0          
H1       H      0.384100000000     0.448300000000     0.519200000000     0          
C5       C      0.390900000000     0.495770000000     0.537590000000     0          
H2       H      0.392400000000     0.489300000000     0.560500000000     0          
C9       C      0.408600000000     0.631500000000     0.592300000000     0          
H        H      0.314910000000     0.588270000000     0.389160000000     0          
C1       C      0.378390000000     0.453840000000     0.453840000000     0          
C2       C      0.383160000000     0.480130000000     0.480130000000     0          
C4       C      0.393800000000     0.529040000000     0.529040000000     0          
C6       C      0.399000000000     0.554040000000     0.554040000000     0          
C7       C      0.403100000000     0.574990000000     0.574990000000     0          
C8       C      0.405100000000     0.600110000000     0.600110000000     0          
O3       O      0.576280000000     0.125620000000     0.214250000000     0          
C3       C      0.528780000000     0.135770000000     0.262960000000     0          
H1       H      0.551700000000     0.134100000000     0.269200000000     0          
C5       C      0.504230000000     0.140900000000     0.287590000000     0          
H2       H      0.510700000000     0.142400000000     0.310500000000     0          
C9       C      0.368500000000     0.158600000000     0.342300000000     0          
H        H      0.411730000000     0.064910000000     0.139160000000     0          
Zr1      Zr     0.625000000000     0.125000000000     0.187210000000     0          
C1       C      0.546160000000     0.128390000000     0.203840000000     0          
C2       C      0.519870000000     0.133160000000     0.230130000000     0          
C4       C      0.470960000000     0.143800000000     0.279040000000     0          
C6       C      0.445960000000     0.149000000000     0.304040000000     0          
C7       C      0.425010000000     0.153100000000     0.324990000000     0          
C8       C      0.399890000000     0.155100000000     0.350110000000     0          
O3       O      0.874380000000     0.326280000000     0.964250000000     0          
C3       C      0.864230000000     0.278780000000     0.012960000000     0          
H1       H      0.865900000000     0.301700000000     0.019200000000     0          
C5       C      0.859100000000     0.254230000000     0.037590000000     0          
H2       H      0.857600000000     0.260700000000     0.060500000000     0          
C9       C      0.841400000000     0.118500000000     0.092300000000     0          
H        H      0.935090000000     0.161730000000     0.889160000000     0          
Zr1      Zr     0.875000000000     0.375000000000     0.937210000000     0          
O2       O      0.842410000000     0.407590000000     0.907590000000     0          
O3       O      0.173720000000     0.624380000000     0.214250000000     0          
C3       C      0.221220000000     0.614230000000     0.262960000000     0          
H1       H      0.198300000000     0.615900000000     0.269200000000     0          
C5       C      0.245770000000     0.609100000000     0.287590000000     0          
H2       H      0.239300000000     0.607600000000     0.310500000000     0          
C9       C      0.381500000000     0.591400000000     0.342300000000     0          
H        H      0.338270000000     0.685090000000     0.139160000000     0          
Zr1      Zr     0.125000000000     0.625000000000     0.187210000000     0          
C1       C      0.203840000000     0.621610000000     0.203840000000     0          
C2       C      0.230130000000     0.616840000000     0.230130000000     0          
C4       C      0.279040000000     0.606200000000     0.279040000000     0          
C6       C      0.304040000000     0.601000000000     0.304040000000     0          
C7       C      0.324990000000     0.596900000000     0.324990000000     0          
C8       C      0.350110000000     0.594900000000     0.350110000000     0          
O3       O      0.874380000000     0.923720000000     0.285750000000     0          
C3       C      0.864230000000     0.971220000000     0.237040000000     0          
H1       H      0.865900000000     0.948300000000     0.230800000000     0          
C5       C      0.859100000000     0.995770000000     0.212410000000     0          
H2       H      0.857600000000     0.989300000000     0.189500000000     0          
C9       C      0.841400000000     0.131500000000     0.157700000000     0          
H        H      0.935090000000     0.088270000000     0.360840000000     0          
O2       O      0.842410000000     0.842410000000     0.342410000000     0          
O3       O      0.576280000000     0.124380000000     0.035750000000     0          
C3       C      0.528780000000     0.114230000000     0.987040000000     0          
H1       H      0.551700000000     0.115900000000     0.980800000000     0          
C5       C      0.504230000000     0.109100000000     0.962410000000     0          
H2       H      0.510700000000     0.107600000000     0.939500000000     0          
C9       C      0.368500000000     0.091400000000     0.907700000000     0          
H        H      0.411730000000     0.185090000000     0.110840000000     0          
Zr1      Zr     0.625000000000     0.125000000000     0.062790000000     0          
C1       C      0.546160000000     0.121610000000     0.046160000000     0          
C2       C      0.519870000000     0.116840000000     0.019870000000     0          
C4       C      0.470960000000     0.106200000000     0.970960000000     0          
C6       C      0.445960000000     0.101000000000     0.945960000000     0          
C7       C      0.425010000000     0.096900000000     0.925010000000     0          
C8       C      0.399890000000     0.094900000000     0.899890000000     0          
O3       O      0.673720000000     0.625620000000     0.535750000000     0          
C3       C      0.721220000000     0.635770000000     0.487040000000     0          
H1       H      0.698300000000     0.634100000000     0.480800000000     0          
C5       C      0.745770000000     0.640900000000     0.462410000000     0          
H2       H      0.739300000000     0.642400000000     0.439500000000     0          
C9       C      0.881500000000     0.658600000000     0.407700000000     0          
H        H      0.838270000000     0.564910000000     0.610840000000     0          
O1       O      0.595890000000     0.595890000000     0.595890000000     0          
C1       C      0.703840000000     0.628390000000     0.546160000000     0          
C2       C      0.730130000000     0.633160000000     0.519870000000     0          
C4       C      0.779040000000     0.643800000000     0.470960000000     0          
C6       C      0.804040000000     0.649000000000     0.445960000000     0          
C7       C      0.824990000000     0.653100000000     0.425010000000     0          
C8       C      0.850110000000     0.655100000000     0.399890000000     0          
O3       O      0.714250000000     0.624380000000     0.673720000000     0          
C3       C      0.762960000000     0.614230000000     0.721220000000     0          
H1       H      0.769200000000     0.615900000000     0.698300000000     0          
C5       C      0.787590000000     0.609100000000     0.745770000000     0          
H2       H      0.810500000000     0.607600000000     0.739300000000     0          
C9       C      0.842300000000     0.591400000000     0.881500000000     0          
H        H      0.639160000000     0.685090000000     0.838270000000     0          
C1       C      0.703840000000     0.621610000000     0.703840000000     0          
C2       C      0.730130000000     0.616840000000     0.730130000000     0          
C4       C      0.779040000000     0.606200000000     0.779040000000     0          
C6       C      0.804040000000     0.601000000000     0.804040000000     0          
C7       C      0.824990000000     0.596900000000     0.824990000000     0          
C8       C      0.850110000000     0.594900000000     0.850110000000     0          
O3       O      0.875620000000     0.464250000000     0.923720000000     0          
C3       C      0.885770000000     0.512960000000     0.971220000000     0          
H1       H      0.884100000000     0.519200000000     0.948300000000     0          
C5       C      0.890900000000     0.537590000000     0.995770000000     0          
H2       H      0.892400000000     0.560500000000     0.989300000000     0          
C9       C      0.908600000000     0.592300000000     0.131500000000     0          
H        H      0.814910000000     0.389160000000     0.088270000000     0          
O1       O      0.845890000000     0.404110000000     0.845890000000     0          
C1       C      0.878390000000     0.453840000000     0.953840000000     0          
C2       C      0.883160000000     0.480130000000     0.980130000000     0          
C4       C      0.893800000000     0.529040000000     0.029040000000     0          
C6       C      0.899000000000     0.554040000000     0.054040000000     0          
C7       C      0.903100000000     0.574990000000     0.074990000000     0          
C8       C      0.905100000000     0.600110000000     0.100110000000     0          
O3       O      0.035750000000     0.625620000000     0.173720000000     0          
C3       C      0.987040000000     0.635770000000     0.221220000000     0          
H1       H      0.980800000000     0.634100000000     0.198300000000     0          
C5       C      0.962410000000     0.640900000000     0.245770000000     0          
H2       H      0.939500000000     0.642400000000     0.239300000000     0          
C9       C      0.907700000000     0.658600000000     0.381500000000     0          
H        H      0.110840000000     0.564910000000     0.338270000000     0          
Zr1      Zr     0.062790000000     0.625000000000     0.125000000000     0          
C1       C      0.046160000000     0.628390000000     0.203840000000     0          
C2       C      0.019870000000     0.633160000000     0.230130000000     0          
C4       C      0.970960000000     0.643800000000     0.279040000000     0          
C6       C      0.945960000000     0.649000000000     0.304040000000     0          
C7       C      0.925010000000     0.653100000000     0.324990000000     0          
C8       C      0.899890000000     0.655100000000     0.350110000000     0          
O3       O      0.874380000000     0.785750000000     0.423720000000     0          
C3       C      0.864230000000     0.737040000000     0.471220000000     0          
H1       H      0.865900000000     0.730800000000     0.448300000000     0          
C5       C      0.859100000000     0.712410000000     0.495770000000     0          
H2       H      0.857600000000     0.689500000000     0.489300000000     0          
C9       C      0.841400000000     0.657700000000     0.631500000000     0          
H        H      0.935090000000     0.860840000000     0.588270000000     0          
Zr1      Zr     0.875000000000     0.812790000000     0.375000000000     0          
C1       C      0.871610000000     0.796160000000     0.453840000000     0          
C2       C      0.866840000000     0.769870000000     0.480130000000     0          
C4       C      0.856200000000     0.720960000000     0.529040000000     0          
C6       C      0.851000000000     0.695960000000     0.554040000000     0          
C7       C      0.846900000000     0.675010000000     0.574990000000     0          
C8       C      0.844900000000     0.649890000000     0.600110000000     0          
O3       O      0.714250000000     0.625620000000     0.576280000000     0          
C3       C      0.762960000000     0.635770000000     0.528780000000     0          
H1       H      0.769200000000     0.634100000000     0.551700000000     0          
C5       C      0.787590000000     0.640900000000     0.504230000000     0          
H2       H      0.810500000000     0.642400000000     0.510700000000     0          
C9       C      0.842300000000     0.658600000000     0.368500000000     0          
H        H      0.639160000000     0.564910000000     0.411730000000     0          
O3       O      0.874380000000     0.464250000000     0.826280000000     0          
C3       C      0.864230000000     0.512960000000     0.778780000000     0          
H1       H      0.865900000000     0.519200000000     0.801700000000     0          
C5       C      0.859100000000     0.537590000000     0.754230000000     0          
H2       H      0.857600000000     0.560500000000     0.760700000000     0          
C9       C      0.841400000000     0.592300000000     0.618500000000     0          
H        H      0.935090000000     0.389160000000     0.661730000000     0          
C1       C      0.871610000000     0.453840000000     0.796160000000     0          
C2       C      0.866840000000     0.480130000000     0.769870000000     0          
C4       C      0.856200000000     0.529040000000     0.720960000000     0          
C6       C      0.851000000000     0.554040000000     0.695960000000     0          
C7       C      0.846900000000     0.574990000000     0.675010000000     0          
C8       C      0.844900000000     0.600110000000     0.649890000000     0          
O3       O      0.035750000000     0.624380000000     0.076280000000     0          
C3       C      0.987040000000     0.614230000000     0.028780000000     0          
H1       H      0.980800000000     0.615900000000     0.051700000000     0          
C5       C      0.962410000000     0.609100000000     0.004230000000     0          
H2       H      0.939500000000     0.607600000000     0.010700000000     0          
C9       C      0.907700000000     0.591400000000     0.868500000000     0          
H        H      0.110840000000     0.685090000000     0.911730000000     0          
C1       C      0.046160000000     0.621610000000     0.046160000000     0          
C2       C      0.019870000000     0.616840000000     0.019870000000     0          
C4       C      0.970960000000     0.606200000000     0.970960000000     0          
C6       C      0.945960000000     0.601000000000     0.945960000000     0          
C7       C      0.925010000000     0.596900000000     0.925010000000     0          
C8       C      0.899890000000     0.594900000000     0.899890000000     0          
O3       O      0.875620000000     0.785750000000     0.326280000000     0          
C3       C      0.885770000000     0.737040000000     0.278780000000     0          
H1       H      0.884100000000     0.730800000000     0.301700000000     0          
C5       C      0.890900000000     0.712410000000     0.254230000000     0          
H2       H      0.892400000000     0.689500000000     0.260700000000     0          
C9       C      0.908600000000     0.657700000000     0.118500000000     0          
H        H      0.814910000000     0.860840000000     0.161730000000     0          
O1       O      0.845890000000     0.845890000000     0.404110000000     0          
O3       O      0.173720000000     0.214250000000     0.624380000000     0          
C3       C      0.221220000000     0.262960000000     0.614230000000     0          
H1       H      0.198300000000     0.269200000000     0.615900000000     0          
C5       C      0.245770000000     0.287590000000     0.609100000000     0          
H2       H      0.239300000000     0.310500000000     0.607600000000     0          
C9       C      0.381500000000     0.342300000000     0.591400000000     0          
H        H      0.338270000000     0.139160000000     0.685090000000     0          
Zr1      Zr     0.125000000000     0.187210000000     0.625000000000     0          
C1       C      0.203840000000     0.203840000000     0.621610000000     0          
C2       C      0.230130000000     0.230130000000     0.616840000000     0          
C4       C      0.279040000000     0.279040000000     0.606200000000     0          
C6       C      0.304040000000     0.304040000000     0.601000000000     0          
C7       C      0.324990000000     0.324990000000     0.596900000000     0          
C8       C      0.350110000000     0.350110000000     0.594900000000     0          
O3       O      0.285750000000     0.923720000000     0.874380000000     0          
C3       C      0.237040000000     0.971220000000     0.864230000000     0          
H1       H      0.230800000000     0.948300000000     0.865900000000     0          
C5       C      0.212410000000     0.995770000000     0.859100000000     0          
H2       H      0.189500000000     0.989300000000     0.857600000000     0          
C9       C      0.157700000000     0.131500000000     0.841400000000     0          
H        H      0.360840000000     0.088270000000     0.935090000000     0          
C1       C      0.296160000000     0.953840000000     0.871610000000     0          
C2       C      0.269870000000     0.980130000000     0.866840000000     0          
C4       C      0.220960000000     0.029040000000     0.856200000000     0          
C6       C      0.195960000000     0.054040000000     0.851000000000     0          
C7       C      0.175010000000     0.074990000000     0.846900000000     0          
C8       C      0.149890000000     0.100110000000     0.844900000000     0          
O3       O      0.576280000000     0.035750000000     0.124380000000     0          
C3       C      0.528780000000     0.987040000000     0.114230000000     0          
H1       H      0.551700000000     0.980800000000     0.115900000000     0          
C5       C      0.504230000000     0.962410000000     0.109100000000     0          
H2       H      0.510700000000     0.939500000000     0.107600000000     0          
C9       C      0.368500000000     0.907700000000     0.091400000000     0          
H        H      0.411730000000     0.110840000000     0.185090000000     0          
Zr1      Zr     0.625000000000     0.062790000000     0.125000000000     0          
C1       C      0.546160000000     0.046160000000     0.121610000000     0          
C2       C      0.519870000000     0.019870000000     0.116840000000     0          
C4       C      0.470960000000     0.970960000000     0.106200000000     0          
C6       C      0.445960000000     0.945960000000     0.101000000000     0          
C7       C      0.425010000000     0.925010000000     0.096900000000     0          
C8       C      0.399890000000     0.899890000000     0.094900000000     0          
O3       O      0.464250000000     0.326280000000     0.374380000000     0          
C3       C      0.512960000000     0.278780000000     0.364230000000     0          
H1       H      0.519200000000     0.301700000000     0.365900000000     0          
C5       C      0.537590000000     0.254230000000     0.359100000000     0          
H2       H      0.560500000000     0.260700000000     0.357600000000     0          
C9       C      0.592300000000     0.118500000000     0.341400000000     0          
H        H      0.389160000000     0.161730000000     0.435090000000     0          
O2       O      0.407590000000     0.407590000000     0.342410000000     0          
O3       O      0.173720000000     0.035750000000     0.625620000000     0          
C3       C      0.221220000000     0.987040000000     0.635770000000     0          
H1       H      0.198300000000     0.980800000000     0.634100000000     0          
C5       C      0.245770000000     0.962410000000     0.640900000000     0          
H2       H      0.239300000000     0.939500000000     0.642400000000     0          
C9       C      0.381500000000     0.907700000000     0.658600000000     0          
H        H      0.338270000000     0.110840000000     0.564910000000     0          
C1       C      0.203840000000     0.046160000000     0.628390000000     0          
C2       C      0.230130000000     0.019870000000     0.633160000000     0          
C4       C      0.279040000000     0.970960000000     0.643800000000     0          
C6       C      0.304040000000     0.945960000000     0.649000000000     0          
C7       C      0.324990000000     0.925010000000     0.653100000000     0          
C8       C      0.350110000000     0.899890000000     0.655100000000     0          
O3       O      0.464250000000     0.923720000000     0.875620000000     0          
C3       C      0.512960000000     0.971220000000     0.885770000000     0          
H1       H      0.519200000000     0.948300000000     0.884100000000     0          
C5       C      0.537590000000     0.995770000000     0.890900000000     0          
H2       H      0.560500000000     0.989300000000     0.892400000000     0          
C9       C      0.592300000000     0.131500000000     0.908600000000     0          
H        H      0.389160000000     0.088270000000     0.814910000000     0          
O1       O      0.404110000000     0.845890000000     0.845890000000     0          
O2       O      0.407590000000     0.842410000000     0.907590000000     0          
C1       C      0.453840000000     0.953840000000     0.878390000000     0          
C2       C      0.480130000000     0.980130000000     0.883160000000     0          
C4       C      0.529040000000     0.029040000000     0.893800000000     0          
C6       C      0.554040000000     0.054040000000     0.899000000000     0          
C7       C      0.574990000000     0.074990000000     0.903100000000     0          
C8       C      0.600110000000     0.100110000000     0.905100000000     0          
O3       O      0.576280000000     0.214250000000     0.125620000000     0          
C3       C      0.528780000000     0.262960000000     0.135770000000     0          
H1       H      0.551700000000     0.269200000000     0.134100000000     0          
C5       C      0.504230000000     0.287590000000     0.140900000000     0          
H2       H      0.510700000000     0.310500000000     0.142400000000     0          
C9       C      0.368500000000     0.342300000000     0.158600000000     0          
H        H      0.411730000000     0.139160000000     0.064910000000     0          
Zr1      Zr     0.625000000000     0.187210000000     0.125000000000     0          
O3       O      0.285750000000     0.326280000000     0.375620000000     0          
C3       C      0.237040000000     0.278780000000     0.385770000000     0          
H1       H      0.230800000000     0.301700000000     0.384100000000     0          
C5       C      0.212410000000     0.254230000000     0.390900000000     0          
H2       H      0.189500000000     0.260700000000     0.392400000000     0          
C9       C      0.157700000000     0.118500000000     0.408600000000     0          
H        H      0.360840000000     0.161730000000     0.314910000000     0          
C1       C      0.296160000000     0.296160000000     0.378390000000     0          
C2       C      0.269870000000     0.269870000000     0.383160000000     0          
C4       C      0.220960000000     0.220960000000     0.393800000000     0          
C6       C      0.195960000000     0.195960000000     0.399000000000     0          
C7       C      0.175010000000     0.175010000000     0.403100000000     0          
C8       C      0.149890000000     0.149890000000     0.405100000000     0          
O3       O      0.124380000000     0.673720000000     0.214250000000     0          
C3       C      0.114230000000     0.721220000000     0.262960000000     0          
H1       H      0.115900000000     0.698300000000     0.269200000000     0          
C5       C      0.109100000000     0.745770000000     0.287590000000     0          
H2       H      0.107600000000     0.739300000000     0.310500000000     0          
C9       C      0.091400000000     0.881500000000     0.342300000000     0          
H        H      0.185090000000     0.838270000000     0.139160000000     0          
O1       O      0.154110000000     0.595890000000     0.154110000000     0          
O3       O      0.624380000000     0.076280000000     0.035750000000     0          
C3       C      0.614230000000     0.028780000000     0.987040000000     0          
H1       H      0.615900000000     0.051700000000     0.980800000000     0          
C5       C      0.609100000000     0.004230000000     0.962410000000     0          
H2       H      0.607600000000     0.010700000000     0.939500000000     0          
C9       C      0.591400000000     0.868500000000     0.907700000000     0          
H        H      0.685090000000     0.911730000000     0.110840000000     0          
O2       O      0.592410000000     0.157590000000     0.092410000000     0          
C1       C      0.621610000000     0.046160000000     0.046160000000     0          
C2       C      0.616840000000     0.019870000000     0.019870000000     0          
C4       C      0.606200000000     0.970960000000     0.970960000000     0          
C6       C      0.601000000000     0.945960000000     0.945960000000     0          
C7       C      0.596900000000     0.925010000000     0.925010000000     0          
C8       C      0.594900000000     0.899890000000     0.899890000000     0          
O3       O      0.423720000000     0.374380000000     0.285750000000     0          
C3       C      0.471220000000     0.364230000000     0.237040000000     0          
H1       H      0.448300000000     0.365900000000     0.230800000000     0          
C5       C      0.495770000000     0.359100000000     0.212410000000     0          
H2       H      0.489300000000     0.357600000000     0.189500000000     0          
C9       C      0.631500000000     0.341400000000     0.157700000000     0          
H        H      0.588270000000     0.435090000000     0.360840000000     0          
Zr1      Zr     0.375000000000     0.375000000000     0.312790000000     0          
C1       C      0.453840000000     0.371610000000     0.296160000000     0          
C2       C      0.480130000000     0.366840000000     0.269870000000     0          
C4       C      0.529040000000     0.356200000000     0.220960000000     0          
C6       C      0.554040000000     0.351000000000     0.195960000000     0          
C7       C      0.574990000000     0.346900000000     0.175010000000     0          
C8       C      0.600110000000     0.344900000000     0.149890000000     0          
O3       O      0.125620000000     0.173720000000     0.535750000000     0          
C3       C      0.135770000000     0.221220000000     0.487040000000     0          
H1       H      0.134100000000     0.198300000000     0.480800000000     0          
C5       C      0.140900000000     0.245770000000     0.462410000000     0          
H2       H      0.142400000000     0.239300000000     0.439500000000     0          
C9       C      0.158600000000     0.381500000000     0.407700000000     0          
H        H      0.064910000000     0.338270000000     0.610840000000     0          
Zr1      Zr     0.125000000000     0.125000000000     0.562790000000     0          
C1       C      0.128390000000     0.203840000000     0.546160000000     0          
C2       C      0.133160000000     0.230130000000     0.519870000000     0          
C4       C      0.143800000000     0.279040000000     0.470960000000     0          
C6       C      0.149000000000     0.304040000000     0.445960000000     0          
C7       C      0.153100000000     0.324990000000     0.425010000000     0          
C8       C      0.155100000000     0.350110000000     0.399890000000     0          
O3       O      0.826280000000     0.875620000000     0.285750000000     0          
C3       C      0.778780000000     0.885770000000     0.237040000000     0          
H1       H      0.801700000000     0.884100000000     0.230800000000     0          
C5       C      0.754230000000     0.890900000000     0.212410000000     0          
H2       H      0.760700000000     0.892400000000     0.189500000000     0          
C9       C      0.618500000000     0.908600000000     0.157700000000     0          
H        H      0.661730000000     0.814910000000     0.360840000000     0          
C1       C      0.796160000000     0.878390000000     0.296160000000     0          
C2       C      0.769870000000     0.883160000000     0.269870000000     0          
C4       C      0.720960000000     0.893800000000     0.220960000000     0          
C6       C      0.695960000000     0.899000000000     0.195960000000     0          
C7       C      0.675010000000     0.903100000000     0.175010000000     0          
C8       C      0.649890000000     0.905100000000     0.149890000000     0          
O3       O      0.125620000000     0.576280000000     0.214250000000     0          
C3       C      0.135770000000     0.528780000000     0.262960000000     0          
H1       H      0.134100000000     0.551700000000     0.269200000000     0          
C5       C      0.140900000000     0.504230000000     0.287590000000     0          
H2       H      0.142400000000     0.510700000000     0.310500000000     0          
C9       C      0.158600000000     0.368500000000     0.342300000000     0          
H        H      0.064910000000     0.411730000000     0.139160000000     0          
C1       C      0.128390000000     0.546160000000     0.203840000000     0          
C2       C      0.133160000000     0.519870000000     0.230130000000     0          
C4       C      0.143800000000     0.470960000000     0.279040000000     0          
C6       C      0.149000000000     0.445960000000     0.304040000000     0          
C7       C      0.153100000000     0.425010000000     0.324990000000     0          
C8       C      0.155100000000     0.399890000000     0.350110000000     0          
O3       O      0.423720000000     0.375620000000     0.464250000000     0          
C3       C      0.471220000000     0.385770000000     0.512960000000     0          
H1       H      0.448300000000     0.384100000000     0.519200000000     0          
C5       C      0.495770000000     0.390900000000     0.537590000000     0          
H2       H      0.489300000000     0.392400000000     0.560500000000     0          
C9       C      0.631500000000     0.408600000000     0.592300000000     0          
H        H      0.588270000000     0.314910000000     0.389160000000     0          
C1       C      0.453840000000     0.378390000000     0.453840000000     0          
C2       C      0.480130000000     0.383160000000     0.480130000000     0          
C4       C      0.529040000000     0.393800000000     0.529040000000     0          
C6       C      0.554040000000     0.399000000000     0.554040000000     0          
C7       C      0.574990000000     0.403100000000     0.574990000000     0          
C8       C      0.600110000000     0.405100000000     0.600110000000     0          
O3       O      0.326280000000     0.874380000000     0.964250000000     0          
C3       C      0.278780000000     0.864230000000     0.012960000000     0          
H1       H      0.301700000000     0.865900000000     0.019200000000     0          
C5       C      0.254230000000     0.859100000000     0.037590000000     0          
H2       H      0.260700000000     0.857600000000     0.060500000000     0          
C9       C      0.118500000000     0.841400000000     0.092300000000     0          
H        H      0.161730000000     0.935090000000     0.889160000000     0          
O3       O      0.285750000000     0.375620000000     0.326280000000     0          
C3       C      0.237040000000     0.385770000000     0.278780000000     0          
H1       H      0.230800000000     0.384100000000     0.301700000000     0          
C5       C      0.212410000000     0.390900000000     0.254230000000     0          
H2       H      0.189500000000     0.392400000000     0.260700000000     0          
C9       C      0.157700000000     0.408600000000     0.118500000000     0          
H        H      0.360840000000     0.314910000000     0.161730000000     0          
C1       C      0.296160000000     0.378390000000     0.296160000000     0          
C2       C      0.269870000000     0.383160000000     0.269870000000     0          
C4       C      0.220960000000     0.393800000000     0.220960000000     0          
C6       C      0.195960000000     0.399000000000     0.195960000000     0          
C7       C      0.175010000000     0.403100000000     0.175010000000     0          
C8       C      0.149890000000     0.405100000000     0.149890000000     0          
O3       O      0.124380000000     0.535750000000     0.076280000000     0          
C3       C      0.114230000000     0.487040000000     0.028780000000     0          
H1       H      0.115900000000     0.480800000000     0.051700000000     0          
C5       C      0.109100000000     0.462410000000     0.004230000000     0          
H2       H      0.107600000000     0.439500000000     0.010700000000     0          
C9       C      0.091400000000     0.407700000000     0.868500000000     0          
H        H      0.185090000000     0.610840000000     0.911730000000     0          
C1       C      0.121610000000     0.546160000000     0.046160000000     0          
C2       C      0.116840000000     0.519870000000     0.019870000000     0          
C4       C      0.106200000000     0.470960000000     0.970960000000     0          
C6       C      0.101000000000     0.445960000000     0.945960000000     0          
C7       C      0.096900000000     0.425010000000     0.925010000000     0          
C8       C      0.094900000000     0.399890000000     0.899890000000     0          
O3       O      0.964250000000     0.374380000000     0.826280000000     0          
C3       C      0.012960000000     0.364230000000     0.778780000000     0          
H1       H      0.019200000000     0.365900000000     0.801700000000     0          
C5       C      0.037590000000     0.359100000000     0.754230000000     0          
H2       H      0.060500000000     0.357600000000     0.760700000000     0          
C9       C      0.092300000000     0.341400000000     0.618500000000     0          
H        H      0.889160000000     0.435090000000     0.661730000000     0          
Zr1      Zr     0.937210000000     0.375000000000     0.875000000000     0          
C1       C      0.953840000000     0.371610000000     0.796160000000     0          
C2       C      0.980130000000     0.366840000000     0.769870000000     0          
C4       C      0.029040000000     0.356200000000     0.720960000000     0          
C6       C      0.054040000000     0.351000000000     0.695960000000     0          
C7       C      0.074990000000     0.346900000000     0.675010000000     0          
C8       C      0.100110000000     0.344900000000     0.649890000000     0          
O3       O      0.125620000000     0.214250000000     0.576280000000     0          
C3       C      0.135770000000     0.262960000000     0.528780000000     0          
H1       H      0.134100000000     0.269200000000     0.551700000000     0          
C5       C      0.140900000000     0.287590000000     0.504230000000     0          
H2       H      0.142400000000     0.310500000000     0.510700000000     0          
C9       C      0.158600000000     0.342300000000     0.368500000000     0          
H        H      0.064910000000     0.139160000000     0.411730000000     0          
O3       O      0.285750000000     0.374380000000     0.423720000000     0          
C3       C      0.237040000000     0.364230000000     0.471220000000     0          
H1       H      0.230800000000     0.365900000000     0.448300000000     0          
C5       C      0.212410000000     0.359100000000     0.495770000000     0          
H2       H      0.189500000000     0.357600000000     0.489300000000     0          
C9       C      0.157700000000     0.341400000000     0.631500000000     0          
H        H      0.360840000000     0.435090000000     0.588270000000     0          
O3       O      0.125620000000     0.535750000000     0.173720000000     0          
C3       C      0.135770000000     0.487040000000     0.221220000000     0          
H1       H      0.134100000000     0.480800000000     0.198300000000     0          
C5       C      0.140900000000     0.462410000000     0.245770000000     0          
H2       H      0.142400000000     0.439500000000     0.239300000000     0          
C9       C      0.158600000000     0.407700000000     0.381500000000     0          
H        H      0.064910000000     0.610840000000     0.338270000000     0          
O3       O      0.964250000000     0.375620000000     0.923720000000     0          
C3       C      0.012960000000     0.385770000000     0.971220000000     0          
H1       H      0.019200000000     0.384100000000     0.948300000000     0          
C5       C      0.037590000000     0.390900000000     0.995770000000     0          
H2       H      0.060500000000     0.392400000000     0.989300000000     0          
C9       C      0.092300000000     0.408600000000     0.131500000000     0          
H        H      0.889160000000     0.314910000000     0.088270000000     0          
C1       C      0.953840000000     0.378390000000     0.953840000000     0          
C2       C      0.980130000000     0.383160000000     0.980130000000     0          
C4       C      0.029040000000     0.393800000000     0.029040000000     0          
C6       C      0.054040000000     0.399000000000     0.054040000000     0          
C7       C      0.074990000000     0.403100000000     0.074990000000     0          
C8       C      0.100110000000     0.405100000000     0.100110000000     0          
O3       O      0.124380000000     0.214250000000     0.673720000000     0          
C3       C      0.114230000000     0.262960000000     0.721220000000     0          
H1       H      0.115900000000     0.269200000000     0.698300000000     0          
C5       C      0.109100000000     0.287590000000     0.745770000000     0          
H2       H      0.107600000000     0.310500000000     0.739300000000     0          
C9       C      0.091400000000     0.342300000000     0.881500000000     0          
H        H      0.185090000000     0.139160000000     0.838270000000     0          
O1       O      0.154110000000     0.154110000000     0.595890000000     0          
O3       O      0.826280000000     0.785750000000     0.375620000000     0          
C3       C      0.778780000000     0.737040000000     0.385770000000     0          
H1       H      0.801700000000     0.730800000000     0.384100000000     0          
C5       C      0.754230000000     0.712410000000     0.390900000000     0          
H2       H      0.760700000000     0.689500000000     0.392400000000     0          
C9       C      0.618500000000     0.657700000000     0.408600000000     0          
H        H      0.661730000000     0.860840000000     0.314910000000     0          
C1       C      0.796160000000     0.796160000000     0.378390000000     0          
C2       C      0.769870000000     0.769870000000     0.383160000000     0          
C4       C      0.720960000000     0.720960000000     0.393800000000     0          
C6       C      0.695960000000     0.695960000000     0.399000000000     0          
C7       C      0.675010000000     0.675010000000     0.403100000000     0          
C8       C      0.649890000000     0.649890000000     0.405100000000     0          
O3       O      0.714250000000     0.076280000000     0.125620000000     0          
C3       C      0.762960000000     0.028780000000     0.135770000000     0          
H1       H      0.769200000000     0.051700000000     0.134100000000     0          
C5       C      0.787590000000     0.004230000000     0.140900000000     0          
H2       H      0.810500000000     0.010700000000     0.142400000000     0          
C9       C      0.842300000000     0.868500000000     0.158600000000     0          
H        H      0.639160000000     0.911730000000     0.064910000000     0          
C1       C      0.703840000000     0.046160000000     0.128390000000     0          
C2       C      0.730130000000     0.019870000000     0.133160000000     0          
C4       C      0.779040000000     0.970960000000     0.143800000000     0          
C6       C      0.804040000000     0.945960000000     0.149000000000     0          
C7       C      0.824990000000     0.925010000000     0.153100000000     0          
C8       C      0.850110000000     0.899890000000     0.155100000000     0          
O3       O      0.423720000000     0.964250000000     0.875620000000     0          
C3       C      0.471220000000     0.012960000000     0.885770000000     0          
H1       H      0.448300000000     0.019200000000     0.884100000000     0          
C5       C      0.495770000000     0.037590000000     0.890900000000     0          
H2       H      0.489300000000     0.060500000000     0.892400000000     0          
C9       C      0.631500000000     0.092300000000     0.908600000000     0          
H        H      0.588270000000     0.889160000000     0.814910000000     0          
Zr1      Zr     0.375000000000     0.937210000000     0.875000000000     0          
O3       O      0.535750000000     0.673720000000     0.625620000000     0          
C3       C      0.487040000000     0.721220000000     0.635770000000     0          
H1       H      0.480800000000     0.698300000000     0.634100000000     0          
C5       C      0.462410000000     0.745770000000     0.640900000000     0          
H2       H      0.439500000000     0.739300000000     0.642400000000     0          
C9       C      0.407700000000     0.881500000000     0.658600000000     0          
H        H      0.610840000000     0.838270000000     0.564910000000     0          
O2       O      0.592410000000     0.592410000000     0.657590000000     0          
O3       O      0.826280000000     0.964250000000     0.374380000000     0          
C3       C      0.778780000000     0.012960000000     0.364230000000     0          
H1       H      0.801700000000     0.019200000000     0.365900000000     0          
C5       C      0.754230000000     0.037590000000     0.359100000000     0          
H2       H      0.760700000000     0.060500000000     0.357600000000     0          
C9       C      0.618500000000     0.092300000000     0.341400000000     0          
H        H      0.661730000000     0.889160000000     0.435090000000     0          
C1       C      0.796160000000     0.953840000000     0.371610000000     0          
C2       C      0.769870000000     0.980130000000     0.366840000000     0          
C4       C      0.720960000000     0.029040000000     0.356200000000     0          
C6       C      0.695960000000     0.054040000000     0.351000000000     0          
C7       C      0.675010000000     0.074990000000     0.346900000000     0          
C8       C      0.649890000000     0.100110000000     0.344900000000     0          
O3       O      0.535750000000     0.076280000000     0.124380000000     0          
C3       C      0.487040000000     0.028780000000     0.114230000000     0          
H1       H      0.480800000000     0.051700000000     0.115900000000     0          
C5       C      0.462410000000     0.004230000000     0.109100000000     0          
H2       H      0.439500000000     0.010700000000     0.107600000000     0          
C9       C      0.407700000000     0.868500000000     0.091400000000     0          
H        H      0.610840000000     0.911730000000     0.185090000000     0          
O1       O      0.595890000000     0.154110000000     0.154110000000     0          
O3       O      0.423720000000     0.785750000000     0.874380000000     0          
C3       C      0.471220000000     0.737040000000     0.864230000000     0          
H1       H      0.448300000000     0.730800000000     0.865900000000     0          
C5       C      0.495770000000     0.712410000000     0.859100000000     0          
H2       H      0.489300000000     0.689500000000     0.857600000000     0          
C9       C      0.631500000000     0.657700000000     0.841400000000     0          
H        H      0.588270000000     0.860840000000     0.935090000000     0          
Zr1      Zr     0.375000000000     0.812790000000     0.875000000000     0          
O3       O      0.714250000000     0.673720000000     0.624380000000     0          
C3       C      0.762960000000     0.721220000000     0.614230000000     0          
H1       H      0.769200000000     0.698300000000     0.615900000000     0          
C5       C      0.787590000000     0.745770000000     0.609100000000     0          
H2       H      0.810500000000     0.739300000000     0.607600000000     0          
C9       C      0.842300000000     0.881500000000     0.591400000000     0          
H        H      0.639160000000     0.838270000000     0.685090000000     0          
C1       C      0.703840000000     0.703840000000     0.621610000000     0          
C2       C      0.730130000000     0.730130000000     0.616840000000     0          
C4       C      0.779040000000     0.779040000000     0.606200000000     0          
C6       C      0.804040000000     0.804040000000     0.601000000000     0          
C7       C      0.824990000000     0.824990000000     0.596900000000     0          
C8       C      0.850110000000     0.850110000000     0.594900000000     0          
O3       O      0.875620000000     0.326280000000     0.785750000000     0          
C3       C      0.885770000000     0.278780000000     0.737040000000     0          
H1       H      0.884100000000     0.301700000000     0.730800000000     0          
C5       C      0.890900000000     0.254230000000     0.712410000000     0          
H2       H      0.892400000000     0.260700000000     0.689500000000     0          
C9       C      0.908600000000     0.118500000000     0.657700000000     0          
H        H      0.814910000000     0.161730000000     0.860840000000     0          
O3       O      0.375620000000     0.923720000000     0.964250000000     0          
C3       C      0.385770000000     0.971220000000     0.012960000000     0          
H1       H      0.384100000000     0.948300000000     0.019200000000     0          
C5       C      0.390900000000     0.995770000000     0.037590000000     0          
H2       H      0.392400000000     0.989300000000     0.060500000000     0          
C9       C      0.408600000000     0.131500000000     0.092300000000     0          
H        H      0.314910000000     0.088270000000     0.889160000000     0          
C1       C      0.378390000000     0.953840000000     0.953840000000     0          
C2       C      0.383160000000     0.980130000000     0.980130000000     0          
C4       C      0.393800000000     0.029040000000     0.029040000000     0          
C6       C      0.399000000000     0.054040000000     0.054040000000     0          
C7       C      0.403100000000     0.074990000000     0.074990000000     0          
C8       C      0.405100000000     0.100110000000     0.100110000000     0          
O3       O      0.576280000000     0.625620000000     0.714250000000     0          
C3       C      0.528780000000     0.635770000000     0.762960000000     0          
H1       H      0.551700000000     0.634100000000     0.769200000000     0          
C5       C      0.504230000000     0.640900000000     0.787590000000     0          
H2       H      0.510700000000     0.642400000000     0.810500000000     0          
C9       C      0.368500000000     0.658600000000     0.842300000000     0          
H        H      0.411730000000     0.564910000000     0.639160000000     0          
Zr1      Zr     0.625000000000     0.625000000000     0.687210000000     0          
C1       C      0.546160000000     0.628390000000     0.703840000000     0          
C2       C      0.519870000000     0.633160000000     0.730130000000     0          
C4       C      0.470960000000     0.643800000000     0.779040000000     0          
C6       C      0.445960000000     0.649000000000     0.804040000000     0          
C7       C      0.425010000000     0.653100000000     0.824990000000     0          
C8       C      0.399890000000     0.655100000000     0.850110000000     0          
O3       O      0.874380000000     0.826280000000     0.464250000000     0          
C3       C      0.864230000000     0.778780000000     0.512960000000     0          
H1       H      0.865900000000     0.801700000000     0.519200000000     0          
C5       C      0.859100000000     0.754230000000     0.537590000000     0          
H2       H      0.857600000000     0.760700000000     0.560500000000     0          
C9       C      0.841400000000     0.618500000000     0.592300000000     0          
H        H      0.935090000000     0.661730000000     0.389160000000     0          
Zr1      Zr     0.875000000000     0.875000000000     0.437210000000     0          
O3       O      0.173720000000     0.124380000000     0.714250000000     0          
C3       C      0.221220000000     0.114230000000     0.762960000000     0          
H1       H      0.198300000000     0.115900000000     0.769200000000     0          
C5       C      0.245770000000     0.109100000000     0.787590000000     0          
H2       H      0.239300000000     0.107600000000     0.810500000000     0          
C9       C      0.381500000000     0.091400000000     0.842300000000     0          
H        H      0.338270000000     0.185090000000     0.639160000000     0          
C1       C      0.203840000000     0.121610000000     0.703840000000     0          
C2       C      0.230130000000     0.116840000000     0.730130000000     0          
C4       C      0.279040000000     0.106200000000     0.779040000000     0          
C6       C      0.304040000000     0.101000000000     0.804040000000     0          
C7       C      0.324990000000     0.096900000000     0.824990000000     0          
C8       C      0.350110000000     0.094900000000     0.850110000000     0          
O3       O      0.874380000000     0.423720000000     0.785750000000     0          
C3       C      0.864230000000     0.471220000000     0.737040000000     0          
H1       H      0.865900000000     0.448300000000     0.730800000000     0          
C5       C      0.859100000000     0.495770000000     0.712410000000     0          
H2       H      0.857600000000     0.489300000000     0.689500000000     0          
C9       C      0.841400000000     0.631500000000     0.657700000000     0          
H        H      0.935090000000     0.588270000000     0.860840000000     0          
O3       O      0.576280000000     0.624380000000     0.535750000000     0          
C3       C      0.528780000000     0.614230000000     0.487040000000     0          
H1       H      0.551700000000     0.615900000000     0.480800000000     0          
C5       C      0.504230000000     0.609100000000     0.462410000000     0          
H2       H      0.510700000000     0.607600000000     0.439500000000     0          
C9       C      0.368500000000     0.591400000000     0.407700000000     0          
H        H      0.411730000000     0.685090000000     0.610840000000     0          
C1       C      0.546160000000     0.621610000000     0.546160000000     0          
C2       C      0.519870000000     0.616840000000     0.519870000000     0          
C4       C      0.470960000000     0.606200000000     0.470960000000     0          
C6       C      0.445960000000     0.601000000000     0.445960000000     0          
C7       C      0.425010000000     0.596900000000     0.425010000000     0          
C8       C      0.399890000000     0.594900000000     0.399890000000     0          
O3       O      0.673720000000     0.125620000000     0.035750000000     0          
C3       C      0.721220000000     0.135770000000     0.987040000000     0          
H1       H      0.698300000000     0.134100000000     0.980800000000     0          
C5       C      0.745770000000     0.140900000000     0.962410000000     0          
H2       H      0.739300000000     0.142400000000     0.939500000000     0          
C9       C      0.881500000000     0.158600000000     0.907700000000     0          
H        H      0.838270000000     0.064910000000     0.110840000000     0          
O3       O      0.214250000000     0.124380000000     0.673720000000     0          
C3       C      0.262960000000     0.114230000000     0.721220000000     0          
H1       H      0.269200000000     0.115900000000     0.698300000000     0          
C5       C      0.287590000000     0.109100000000     0.745770000000     0          
H2       H      0.310500000000     0.107600000000     0.739300000000     0          
C9       C      0.342300000000     0.091400000000     0.881500000000     0          
H        H      0.139160000000     0.185090000000     0.838270000000     0          
Zr1      Zr     0.187210000000     0.125000000000     0.625000000000     0          
O3       O      0.375620000000     0.964250000000     0.923720000000     0          
C3       C      0.385770000000     0.012960000000     0.971220000000     0          
H1       H      0.384100000000     0.019200000000     0.948300000000     0          
C5       C      0.390900000000     0.037590000000     0.995770000000     0          
H2       H      0.392400000000     0.060500000000     0.989300000000     0          
C9       C      0.408600000000     0.092300000000     0.131500000000     0          
H        H      0.314910000000     0.889160000000     0.088270000000     0          
O3       O      0.535750000000     0.125620000000     0.173720000000     0          
C3       C      0.487040000000     0.135770000000     0.221220000000     0          
H1       H      0.480800000000     0.134100000000     0.198300000000     0          
C5       C      0.462410000000     0.140900000000     0.245770000000     0          
H2       H      0.439500000000     0.142400000000     0.239300000000     0          
C9       C      0.407700000000     0.158600000000     0.381500000000     0          
H        H      0.610840000000     0.064910000000     0.338270000000     0          
O3       O      0.374380000000     0.285750000000     0.423720000000     0          
C3       C      0.364230000000     0.237040000000     0.471220000000     0          
H1       H      0.365900000000     0.230800000000     0.448300000000     0          
C5       C      0.359100000000     0.212410000000     0.495770000000     0          
H2       H      0.357600000000     0.189500000000     0.489300000000     0          
C9       C      0.341400000000     0.157700000000     0.631500000000     0          
H        H      0.435090000000     0.360840000000     0.588270000000     0          
C1       C      0.371610000000     0.296160000000     0.453840000000     0          
C2       C      0.366840000000     0.269870000000     0.480130000000     0          
C4       C      0.356200000000     0.220960000000     0.529040000000     0          
C6       C      0.351000000000     0.195960000000     0.554040000000     0          
C7       C      0.346900000000     0.175010000000     0.574990000000     0          
C8       C      0.344900000000     0.149890000000     0.600110000000     0          
O3       O      0.214250000000     0.125620000000     0.576280000000     0          
C3       C      0.262960000000     0.135770000000     0.528780000000     0          
H1       H      0.269200000000     0.134100000000     0.551700000000     0          
C5       C      0.287590000000     0.140900000000     0.504230000000     0          
H2       H      0.310500000000     0.142400000000     0.510700000000     0          
C9       C      0.342300000000     0.158600000000     0.368500000000     0          
H        H      0.139160000000     0.064910000000     0.411730000000     0          
C1       C      0.203840000000     0.128390000000     0.546160000000     0          
C2       C      0.230130000000     0.133160000000     0.519870000000     0          
C4       C      0.279040000000     0.143800000000     0.470960000000     0          
C6       C      0.304040000000     0.149000000000     0.445960000000     0          
C7       C      0.324990000000     0.153100000000     0.425010000000     0          
C8       C      0.350110000000     0.155100000000     0.399890000000     0          
O3       O      0.374380000000     0.964250000000     0.826280000000     0          
C3       C      0.364230000000     0.012960000000     0.778780000000     0          
H1       H      0.365900000000     0.019200000000     0.801700000000     0          
C5       C      0.359100000000     0.037590000000     0.754230000000     0          
H2       H      0.357600000000     0.060500000000     0.760700000000     0          
C9       C      0.341400000000     0.092300000000     0.618500000000     0          
H        H      0.435090000000     0.889160000000     0.661730000000     0          
C1       C      0.371610000000     0.953840000000     0.796160000000     0          
C2       C      0.366840000000     0.980130000000     0.769870000000     0          
C4       C      0.356200000000     0.029040000000     0.720960000000     0          
C6       C      0.351000000000     0.054040000000     0.695960000000     0          
C7       C      0.346900000000     0.074990000000     0.675010000000     0          
C8       C      0.344900000000     0.100110000000     0.649890000000     0          
O3       O      0.535750000000     0.124380000000     0.076280000000     0          
C3       C      0.487040000000     0.114230000000     0.028780000000     0          
H1       H      0.480800000000     0.115900000000     0.051700000000     0          
C5       C      0.462410000000     0.109100000000     0.004230000000     0          
H2       H      0.439500000000     0.107600000000     0.010700000000     0          
C9       C      0.407700000000     0.091400000000     0.868500000000     0          
H        H      0.610840000000     0.185090000000     0.911730000000     0          
O3       O      0.375620000000     0.285750000000     0.326280000000     0          
C3       C      0.385770000000     0.237040000000     0.278780000000     0          
H1       H      0.384100000000     0.230800000000     0.301700000000     0          
C5       C      0.390900000000     0.212410000000     0.254230000000     0          
H2       H      0.392400000000     0.189500000000     0.260700000000     0          
C9       C      0.408600000000     0.157700000000     0.118500000000     0          
H        H      0.314910000000     0.360840000000     0.161730000000     0          
C1       C      0.378390000000     0.296160000000     0.296160000000     0          
C2       C      0.383160000000     0.269870000000     0.269870000000     0          
C4       C      0.393800000000     0.220960000000     0.220960000000     0          
C6       C      0.399000000000     0.195960000000     0.195960000000     0          
C7       C      0.403100000000     0.175010000000     0.175010000000     0          
C8       C      0.405100000000     0.149890000000     0.149890000000     0          
O3       O      0.673720000000     0.714250000000     0.624380000000     0          
C3       C      0.721220000000     0.762960000000     0.614230000000     0          
H1       H      0.698300000000     0.769200000000     0.615900000000     0          
C5       C      0.745770000000     0.787590000000     0.609100000000     0          
H2       H      0.739300000000     0.810500000000     0.607600000000     0          
C9       C      0.881500000000     0.842300000000     0.591400000000     0          
H        H      0.838270000000     0.639160000000     0.685090000000     0          
O3       O      0.785750000000     0.423720000000     0.874380000000     0          
C3       C      0.737040000000     0.471220000000     0.864230000000     0          
H1       H      0.730800000000     0.448300000000     0.865900000000     0          
C5       C      0.712410000000     0.495770000000     0.859100000000     0          
H2       H      0.689500000000     0.489300000000     0.857600000000     0          
C9       C      0.657700000000     0.631500000000     0.841400000000     0          
H        H      0.860840000000     0.588270000000     0.935090000000     0          
Zr1      Zr     0.812790000000     0.375000000000     0.875000000000     0          
O3       O      0.076280000000     0.535750000000     0.124380000000     0          
C3       C      0.028780000000     0.487040000000     0.114230000000     0          
H1       H      0.051700000000     0.480800000000     0.115900000000     0          
C5       C      0.004230000000     0.462410000000     0.109100000000     0          
H2       H      0.010700000000     0.439500000000     0.107600000000     0          
C9       C      0.868500000000     0.407700000000     0.091400000000     0          
H        H      0.911730000000     0.610840000000     0.185090000000     0          
C1       C      0.046160000000     0.546160000000     0.121610000000     0          
C2       C      0.019870000000     0.519870000000     0.116840000000     0          
C4       C      0.970960000000     0.470960000000     0.106200000000     0          
C6       C      0.945960000000     0.445960000000     0.101000000000     0          
C7       C      0.925010000000     0.425010000000     0.096900000000     0          
C8       C      0.899890000000     0.399890000000     0.094900000000     0          
O3       O      0.964250000000     0.826280000000     0.374380000000     0          
C3       C      0.012960000000     0.778780000000     0.364230000000     0          
H1       H      0.019200000000     0.801700000000     0.365900000000     0          
C5       C      0.037590000000     0.754230000000     0.359100000000     0          
H2       H      0.060500000000     0.760700000000     0.357600000000     0          
C9       C      0.092300000000     0.618500000000     0.341400000000     0          
H        H      0.889160000000     0.661730000000     0.435090000000     0          
C1       C      0.953840000000     0.796160000000     0.371610000000     0          
C2       C      0.980130000000     0.769870000000     0.366840000000     0          
C4       C      0.029040000000     0.720960000000     0.356200000000     0          
C6       C      0.054040000000     0.695960000000     0.351000000000     0          
C7       C      0.074990000000     0.675010000000     0.346900000000     0          
C8       C      0.100110000000     0.649890000000     0.344900000000     0          
O3       O      0.673720000000     0.535750000000     0.625620000000     0          
C3       C      0.721220000000     0.487040000000     0.635770000000     0          
H1       H      0.698300000000     0.480800000000     0.634100000000     0          
C5       C      0.745770000000     0.462410000000     0.640900000000     0          
H2       H      0.739300000000     0.439500000000     0.642400000000     0          
C9       C      0.881500000000     0.407700000000     0.658600000000     0          
H        H      0.838270000000     0.610840000000     0.564910000000     0          
O3       O      0.964250000000     0.423720000000     0.875620000000     0          
C3       C      0.012960000000     0.471220000000     0.885770000000     0          
H1       H      0.019200000000     0.448300000000     0.884100000000     0          
C5       C      0.037590000000     0.495770000000     0.890900000000     0          
H2       H      0.060500000000     0.489300000000     0.892400000000     0          
C9       C      0.092300000000     0.631500000000     0.908600000000     0          
H        H      0.889160000000     0.588270000000     0.814910000000     0          
C1       C      0.953840000000     0.453840000000     0.878390000000     0          
C2       C      0.980130000000     0.480130000000     0.883160000000     0          
C4       C      0.029040000000     0.529040000000     0.893800000000     0          
C6       C      0.054040000000     0.554040000000     0.899000000000     0          
C7       C      0.074990000000     0.574990000000     0.903100000000     0          
C8       C      0.100110000000     0.600110000000     0.905100000000     0          
O3       O      0.076280000000     0.714250000000     0.125620000000     0          
C3       C      0.028780000000     0.762960000000     0.135770000000     0          
H1       H      0.051700000000     0.769200000000     0.134100000000     0          
C5       C      0.004230000000     0.787590000000     0.140900000000     0          
H2       H      0.010700000000     0.810500000000     0.142400000000     0          
C9       C      0.868500000000     0.842300000000     0.158600000000     0          
H        H      0.911730000000     0.639160000000     0.064910000000     0          
C1       C      0.046160000000     0.703840000000     0.128390000000     0          
C2       C      0.019870000000     0.730130000000     0.133160000000     0          
C4       C      0.970960000000     0.779040000000     0.143800000000     0          
C6       C      0.945960000000     0.804040000000     0.149000000000     0          
C7       C      0.925010000000     0.824990000000     0.153100000000     0          
C8       C      0.899890000000     0.850110000000     0.155100000000     0          
O3       O      0.785750000000     0.826280000000     0.375620000000     0          
C3       C      0.737040000000     0.778780000000     0.385770000000     0          
H1       H      0.730800000000     0.801700000000     0.384100000000     0          
C5       C      0.712410000000     0.754230000000     0.390900000000     0          
H2       H      0.689500000000     0.760700000000     0.392400000000     0          
C9       C      0.657700000000     0.618500000000     0.408600000000     0          
H        H      0.860840000000     0.661730000000     0.314910000000     0          
Zr1      Zr     0.812790000000     0.875000000000     0.375000000000     0          
O3       O      0.624380000000     0.173720000000     0.214250000000     0          
C3       C      0.614230000000     0.221220000000     0.262960000000     0          
H1       H      0.615900000000     0.198300000000     0.269200000000     0          
C5       C      0.609100000000     0.245770000000     0.287590000000     0          
H2       H      0.607600000000     0.239300000000     0.310500000000     0          
C9       C      0.591400000000     0.381500000000     0.342300000000     0          
H        H      0.685090000000     0.338270000000     0.139160000000     0          
C1       C      0.621610000000     0.203840000000     0.203840000000     0          
C2       C      0.616840000000     0.230130000000     0.230130000000     0          
C4       C      0.606200000000     0.279040000000     0.279040000000     0          
C6       C      0.601000000000     0.304040000000     0.304040000000     0          
C7       C      0.596900000000     0.324990000000     0.324990000000     0          
C8       C      0.594900000000     0.350110000000     0.350110000000     0          
O3       O      0.124380000000     0.576280000000     0.035750000000     0          
C3       C      0.114230000000     0.528780000000     0.987040000000     0          
H1       H      0.115900000000     0.551700000000     0.980800000000     0          
C5       C      0.109100000000     0.504230000000     0.962410000000     0          
H2       H      0.107600000000     0.510700000000     0.939500000000     0          
C9       C      0.091400000000     0.368500000000     0.907700000000     0          
H        H      0.185090000000     0.411730000000     0.110840000000     0          
O3       O      0.923720000000     0.874380000000     0.285750000000     0          
C3       C      0.971220000000     0.864230000000     0.237040000000     0          
H1       H      0.948300000000     0.865900000000     0.230800000000     0          
C5       C      0.995770000000     0.859100000000     0.212410000000     0          
H2       H      0.989300000000     0.857600000000     0.189500000000     0          
C9       C      0.131500000000     0.841400000000     0.157700000000     0          
H        H      0.088270000000     0.935090000000     0.360840000000     0          
O3       O      0.625620000000     0.673720000000     0.535750000000     0          
C3       C      0.635770000000     0.721220000000     0.487040000000     0          
H1       H      0.634100000000     0.698300000000     0.480800000000     0          
C5       C      0.640900000000     0.745770000000     0.462410000000     0          
H2       H      0.642400000000     0.739300000000     0.439500000000     0          
C9       C      0.658600000000     0.881500000000     0.407700000000     0          
H        H      0.564910000000     0.838270000000     0.610840000000     0          
C1       C      0.628390000000     0.703840000000     0.546160000000     0          
C2       C      0.633160000000     0.730130000000     0.519870000000     0          
C4       C      0.643800000000     0.779040000000     0.470960000000     0          
C6       C      0.649000000000     0.804040000000     0.445960000000     0          
C7       C      0.653100000000     0.824990000000     0.425010000000     0          
C8       C      0.655100000000     0.850110000000     0.399890000000     0          
O3       O      0.326280000000     0.375620000000     0.285750000000     0          
C3       C      0.278780000000     0.385770000000     0.237040000000     0          
H1       H      0.301700000000     0.384100000000     0.230800000000     0          
C5       C      0.254230000000     0.390900000000     0.212410000000     0          
H2       H      0.260700000000     0.392400000000     0.189500000000     0          
C9       C      0.118500000000     0.408600000000     0.157700000000     0          
H        H      0.161730000000     0.314910000000     0.360840000000     0          
O3       O      0.625620000000     0.076280000000     0.214250000000     0          
C3       C      0.635770000000     0.028780000000     0.262960000000     0          
H1       H      0.634100000000     0.051700000000     0.269200000000     0          
C5       C      0.640900000000     0.004230000000     0.287590000000     0          
H2       H      0.642400000000     0.010700000000     0.310500000000     0          
C9       C      0.658600000000     0.868500000000     0.342300000000     0          
H        H      0.564910000000     0.911730000000     0.139160000000     0          
C1       C      0.628390000000     0.046160000000     0.203840000000     0          
C2       C      0.633160000000     0.019870000000     0.230130000000     0          
C4       C      0.643800000000     0.970960000000     0.279040000000     0          
C6       C      0.649000000000     0.945960000000     0.304040000000     0          
C7       C      0.653100000000     0.925010000000     0.324990000000     0          
C8       C      0.655100000000     0.899890000000     0.350110000000     0          
O3       O      0.923720000000     0.875620000000     0.464250000000     0          
C3       C      0.971220000000     0.885770000000     0.512960000000     0          
H1       H      0.948300000000     0.884100000000     0.519200000000     0          
C5       C      0.995770000000     0.890900000000     0.537590000000     0          
H2       H      0.989300000000     0.892400000000     0.560500000000     0          
C9       C      0.131500000000     0.908600000000     0.592300000000     0          
H        H      0.088270000000     0.814910000000     0.389160000000     0          
O3       O      0.826280000000     0.374380000000     0.964250000000     0          
C3       C      0.778780000000     0.364230000000     0.012960000000     0          
H1       H      0.801700000000     0.365900000000     0.019200000000     0          
C5       C      0.754230000000     0.359100000000     0.037590000000     0          
H2       H      0.760700000000     0.357600000000     0.060500000000     0          
C9       C      0.618500000000     0.341400000000     0.092300000000     0          
H        H      0.661730000000     0.435090000000     0.889160000000     0          
C1       C      0.796160000000     0.371610000000     0.953840000000     0          
C2       C      0.769870000000     0.366840000000     0.980130000000     0          
C4       C      0.720960000000     0.356200000000     0.029040000000     0          
C6       C      0.695960000000     0.351000000000     0.054040000000     0          
C7       C      0.675010000000     0.346900000000     0.074990000000     0          
C8       C      0.649890000000     0.344900000000     0.100110000000     0          
O3       O      0.785750000000     0.875620000000     0.326280000000     0          
C3       C      0.737040000000     0.885770000000     0.278780000000     0          
H1       H      0.730800000000     0.884100000000     0.301700000000     0          
C5       C      0.712410000000     0.890900000000     0.254230000000     0          
H2       H      0.689500000000     0.892400000000     0.260700000000     0          
C9       C      0.657700000000     0.908600000000     0.118500000000     0          
H        H      0.860840000000     0.814910000000     0.161730000000     0          
O3       O      0.624380000000     0.035750000000     0.076280000000     0          
C3       C      0.614230000000     0.987040000000     0.028780000000     0          
H1       H      0.615900000000     0.980800000000     0.051700000000     0          
C5       C      0.609100000000     0.962410000000     0.004230000000     0          
H2       H      0.607600000000     0.939500000000     0.010700000000     0          
C9       C      0.591400000000     0.907700000000     0.868500000000     0          
H        H      0.685090000000     0.110840000000     0.911730000000     0          
O3       O      0.464250000000     0.874380000000     0.826280000000     0          
C3       C      0.512960000000     0.864230000000     0.778780000000     0          
H1       H      0.519200000000     0.865900000000     0.801700000000     0          
C5       C      0.537590000000     0.859100000000     0.754230000000     0          
H2       H      0.560500000000     0.857600000000     0.760700000000     0          
C9       C      0.592300000000     0.841400000000     0.618500000000     0          
H        H      0.389160000000     0.935090000000     0.661730000000     0          
O3       O      0.625620000000     0.714250000000     0.576280000000     0          
C3       C      0.635770000000     0.762960000000     0.528780000000     0          
H1       H      0.634100000000     0.769200000000     0.551700000000     0          
C5       C      0.640900000000     0.787590000000     0.504230000000     0          
H2       H      0.642400000000     0.810500000000     0.510700000000     0          
C9       C      0.658600000000     0.842300000000     0.368500000000     0          
H        H      0.564910000000     0.639160000000     0.411730000000     0          
O3       O      0.785750000000     0.874380000000     0.423720000000     0          
C3       C      0.737040000000     0.864230000000     0.471220000000     0          
H1       H      0.730800000000     0.865900000000     0.448300000000     0          
C5       C      0.712410000000     0.859100000000     0.495770000000     0          
H2       H      0.689500000000     0.857600000000     0.489300000000     0          
C9       C      0.657700000000     0.841400000000     0.631500000000     0          
H        H      0.860840000000     0.935090000000     0.588270000000     0          
C1       C      0.796160000000     0.871610000000     0.453840000000     0          
C2       C      0.769870000000     0.866840000000     0.480130000000     0          
C4       C      0.720960000000     0.856200000000     0.529040000000     0          
C6       C      0.695960000000     0.851000000000     0.554040000000     0          
C7       C      0.675010000000     0.846900000000     0.574990000000     0          
C8       C      0.649890000000     0.844900000000     0.600110000000     0          
O3       O      0.625620000000     0.035750000000     0.173720000000     0          
C3       C      0.635770000000     0.987040000000     0.221220000000     0          
H1       H      0.634100000000     0.980800000000     0.198300000000     0          
C5       C      0.640900000000     0.962410000000     0.245770000000     0          
H2       H      0.642400000000     0.939500000000     0.239300000000     0          
C9       C      0.658600000000     0.907700000000     0.381500000000     0          
H        H      0.564910000000     0.110840000000     0.338270000000     0          
O3       O      0.464250000000     0.875620000000     0.923720000000     0          
C3       C      0.512960000000     0.885770000000     0.971220000000     0          
H1       H      0.519200000000     0.884100000000     0.948300000000     0          
C5       C      0.537590000000     0.890900000000     0.995770000000     0          
H2       H      0.560500000000     0.892400000000     0.989300000000     0          
C9       C      0.592300000000     0.908600000000     0.131500000000     0          
H        H      0.389160000000     0.814910000000     0.088270000000     0          
O3       O      0.624380000000     0.714250000000     0.673720000000     0          
C3       C      0.614230000000     0.762960000000     0.721220000000     0          
H1       H      0.615900000000     0.769200000000     0.698300000000     0          
C5       C      0.609100000000     0.787590000000     0.745770000000     0          
H2       H      0.607600000000     0.810500000000     0.739300000000     0          
C9       C      0.591400000000     0.842300000000     0.881500000000     0          
H        H      0.685090000000     0.639160000000     0.838270000000     0          
C1       C      0.621610000000     0.703840000000     0.703840000000     0          
C2       C      0.616840000000     0.730130000000     0.730130000000     0          
C4       C      0.606200000000     0.779040000000     0.779040000000     0          
C6       C      0.601000000000     0.804040000000     0.804040000000     0          
C7       C      0.596900000000     0.824990000000     0.824990000000     0          
C8       C      0.594900000000     0.850110000000     0.850110000000     0          
O3       O      0.326280000000     0.285750000000     0.375620000000     0          
C3       C      0.278780000000     0.237040000000     0.385770000000     0          
H1       H      0.301700000000     0.230800000000     0.384100000000     0          
C5       C      0.254230000000     0.212410000000     0.390900000000     0          
H2       H      0.260700000000     0.189500000000     0.392400000000     0          
C9       C      0.118500000000     0.157700000000     0.408600000000     0          
H        H      0.161730000000     0.360840000000     0.314910000000     0          
O3       O      0.214250000000     0.576280000000     0.125620000000     0          
C3       C      0.262960000000     0.528780000000     0.135770000000     0          
H1       H      0.269200000000     0.551700000000     0.134100000000     0          
C5       C      0.287590000000     0.504230000000     0.140900000000     0          
H2       H      0.310500000000     0.510700000000     0.142400000000     0          
C9       C      0.342300000000     0.368500000000     0.158600000000     0          
H        H      0.139160000000     0.411730000000     0.064910000000     0          
Zr1      Zr     0.187210000000     0.625000000000     0.125000000000     0          
O3       O      0.923720000000     0.464250000000     0.875620000000     0          
C3       C      0.971220000000     0.512960000000     0.885770000000     0          
H1       H      0.948300000000     0.519200000000     0.884100000000     0          
C5       C      0.995770000000     0.537590000000     0.890900000000     0          
H2       H      0.989300000000     0.560500000000     0.892400000000     0          
C9       C      0.131500000000     0.592300000000     0.908600000000     0          
H        H      0.088270000000     0.389160000000     0.814910000000     0          
O3       O      0.035750000000     0.173720000000     0.625620000000     0          
C3       C      0.987040000000     0.221220000000     0.635770000000     0          
H1       H      0.980800000000     0.198300000000     0.634100000000     0          
C5       C      0.962410000000     0.245770000000     0.640900000000     0          
H2       H      0.939500000000     0.239300000000     0.642400000000     0          
C9       C      0.907700000000     0.381500000000     0.658600000000     0          
H        H      0.110840000000     0.338270000000     0.564910000000     0          
C1       C      0.046160000000     0.203840000000     0.628390000000     0          
C2       C      0.019870000000     0.230130000000     0.633160000000     0          
C4       C      0.970960000000     0.279040000000     0.643800000000     0          
C6       C      0.945960000000     0.304040000000     0.649000000000     0          
C7       C      0.925010000000     0.324990000000     0.653100000000     0          
C8       C      0.899890000000     0.350110000000     0.655100000000     0          
O3       O      0.326280000000     0.464250000000     0.374380000000     0          
C3       C      0.278780000000     0.512960000000     0.364230000000     0          
H1       H      0.301700000000     0.519200000000     0.365900000000     0          
C5       C      0.254230000000     0.537590000000     0.359100000000     0          
H2       H      0.260700000000     0.560500000000     0.357600000000     0          
C9       C      0.118500000000     0.592300000000     0.341400000000     0          
H        H      0.161730000000     0.389160000000     0.435090000000     0          
O3       O      0.035750000000     0.576280000000     0.124380000000     0          
C3       C      0.987040000000     0.528780000000     0.114230000000     0          
H1       H      0.980800000000     0.551700000000     0.115900000000     0          
C5       C      0.962410000000     0.504230000000     0.109100000000     0          
H2       H      0.939500000000     0.510700000000     0.107600000000     0          
C9       C      0.907700000000     0.368500000000     0.091400000000     0          
H        H      0.110840000000     0.411730000000     0.185090000000     0          
O3       O      0.923720000000     0.285750000000     0.874380000000     0          
C3       C      0.971220000000     0.237040000000     0.864230000000     0          
H1       H      0.948300000000     0.230800000000     0.865900000000     0          
C5       C      0.995770000000     0.212410000000     0.859100000000     0          
H2       H      0.989300000000     0.189500000000     0.857600000000     0          
C9       C      0.131500000000     0.157700000000     0.841400000000     0          
H        H      0.088270000000     0.360840000000     0.935090000000     0          
C1       C      0.953840000000     0.296160000000     0.871610000000     0          
C2       C      0.980130000000     0.269870000000     0.866840000000     0          
C4       C      0.029040000000     0.220960000000     0.856200000000     0          
C6       C      0.054040000000     0.195960000000     0.851000000000     0          
C7       C      0.074990000000     0.175010000000     0.846900000000     0          
C8       C      0.100110000000     0.149890000000     0.844900000000     0          
O3       O      0.214250000000     0.173720000000     0.624380000000     0          
C3       C      0.262960000000     0.221220000000     0.614230000000     0          
H1       H      0.269200000000     0.198300000000     0.615900000000     0          
C5       C      0.287590000000     0.245770000000     0.609100000000     0          
H2       H      0.310500000000     0.239300000000     0.607600000000     0          
C9       C      0.342300000000     0.381500000000     0.591400000000     0          
H        H      0.139160000000     0.338270000000     0.685090000000     0          
O3       O      0.375620000000     0.826280000000     0.785750000000     0          
C3       C      0.385770000000     0.778780000000     0.737040000000     0          
H1       H      0.384100000000     0.801700000000     0.730800000000     0          
C5       C      0.390900000000     0.754230000000     0.712410000000     0          
H2       H      0.392400000000     0.760700000000     0.689500000000     0          
C9       C      0.408600000000     0.618500000000     0.657700000000     0          
H        H      0.314910000000     0.661730000000     0.860840000000     0          
C1       C      0.378390000000     0.796160000000     0.796160000000     0          
C2       C      0.383160000000     0.769870000000     0.769870000000     0          
C4       C      0.393800000000     0.720960000000     0.720960000000     0          
C6       C      0.399000000000     0.695960000000     0.695960000000     0          
C7       C      0.403100000000     0.675010000000     0.675010000000     0          
C8       C      0.405100000000     0.649890000000     0.649890000000     0          
O3       O      0.875620000000     0.423720000000     0.964250000000     0          
C3       C      0.885770000000     0.471220000000     0.012960000000     0          
H1       H      0.884100000000     0.448300000000     0.019200000000     0          
C5       C      0.890900000000     0.495770000000     0.037590000000     0          
H2       H      0.892400000000     0.489300000000     0.060500000000     0          
C9       C      0.908600000000     0.631500000000     0.092300000000     0          
H        H      0.814910000000     0.588270000000     0.889160000000     0          
O3       O      0.076280000000     0.125620000000     0.714250000000     0          
C3       C      0.028780000000     0.135770000000     0.762960000000     0          
H1       H      0.051700000000     0.134100000000     0.769200000000     0          
C5       C      0.004230000000     0.140900000000     0.787590000000     0          
H2       H      0.010700000000     0.142400000000     0.810500000000     0          
C9       C      0.868500000000     0.158600000000     0.842300000000     0          
H        H      0.911730000000     0.064910000000     0.639160000000     0          
O3       O      0.374380000000     0.326280000000     0.464250000000     0          
C3       C      0.364230000000     0.278780000000     0.512960000000     0          
H1       H      0.365900000000     0.301700000000     0.519200000000     0          
C5       C      0.359100000000     0.254230000000     0.537590000000     0          
H2       H      0.357600000000     0.260700000000     0.560500000000     0          
C9       C      0.341400000000     0.118500000000     0.592300000000     0          
H        H      0.435090000000     0.161730000000     0.389160000000     0          
O3       O      0.673720000000     0.624380000000     0.714250000000     0          
C3       C      0.721220000000     0.614230000000     0.762960000000     0          
H1       H      0.698300000000     0.615900000000     0.769200000000     0          
C5       C      0.745770000000     0.609100000000     0.787590000000     0          
H2       H      0.739300000000     0.607600000000     0.810500000000     0          
C9       C      0.881500000000     0.591400000000     0.842300000000     0          
H        H      0.838270000000     0.685090000000     0.639160000000     0          
O3       O      0.374380000000     0.923720000000     0.785750000000     0          
C3       C      0.364230000000     0.971220000000     0.737040000000     0          
H1       H      0.365900000000     0.948300000000     0.730800000000     0          
C5       C      0.359100000000     0.995770000000     0.712410000000     0          
H2       H      0.357600000000     0.989300000000     0.689500000000     0          
C9       C      0.341400000000     0.131500000000     0.657700000000     0          
H        H      0.435090000000     0.088270000000     0.860840000000     0          
O3       O      0.076280000000     0.124380000000     0.535750000000     0          
C3       C      0.028780000000     0.114230000000     0.487040000000     0          
H1       H      0.051700000000     0.115900000000     0.480800000000     0          
C5       C      0.004230000000     0.109100000000     0.462410000000     0          
H2       H      0.010700000000     0.107600000000     0.439500000000     0          
C9       C      0.868500000000     0.091400000000     0.407700000000     0          
H        H      0.911730000000     0.185090000000     0.610840000000     0          
O3       O      0.173720000000     0.625620000000     0.035750000000     0          
C3       C      0.221220000000     0.635770000000     0.987040000000     0          
H1       H      0.198300000000     0.634100000000     0.980800000000     0          
C5       C      0.245770000000     0.640900000000     0.962410000000     0          
H2       H      0.239300000000     0.642400000000     0.939500000000     0          
C9       C      0.381500000000     0.658600000000     0.907700000000     0          
H        H      0.338270000000     0.564910000000     0.110840000000     0          
C1       C      0.203840000000     0.628390000000     0.046160000000     0          
C2       C      0.230130000000     0.633160000000     0.019870000000     0          
C4       C      0.279040000000     0.643800000000     0.970960000000     0          
C6       C      0.304040000000     0.649000000000     0.945960000000     0          
C7       C      0.324990000000     0.653100000000     0.925010000000     0          
C8       C      0.350110000000     0.655100000000     0.899890000000     0          
O3       O      0.214250000000     0.624380000000     0.173720000000     0          
C3       C      0.262960000000     0.614230000000     0.221220000000     0          
H1       H      0.269200000000     0.615900000000     0.198300000000     0          
C5       C      0.287590000000     0.609100000000     0.245770000000     0          
H2       H      0.310500000000     0.607600000000     0.239300000000     0          
C9       C      0.342300000000     0.591400000000     0.381500000000     0          
H        H      0.139160000000     0.685090000000     0.338270000000     0          
O3       O      0.375620000000     0.464250000000     0.423720000000     0          
C3       C      0.385770000000     0.512960000000     0.471220000000     0          
H1       H      0.384100000000     0.519200000000     0.448300000000     0          
C5       C      0.390900000000     0.537590000000     0.495770000000     0          
H2       H      0.392400000000     0.560500000000     0.489300000000     0          
C9       C      0.408600000000     0.592300000000     0.631500000000     0          
H        H      0.314910000000     0.389160000000     0.588270000000     0          
O3       O      0.535750000000     0.625620000000     0.673720000000     0          
C3       C      0.487040000000     0.635770000000     0.721220000000     0          
H1       H      0.480800000000     0.634100000000     0.698300000000     0          
C5       C      0.462410000000     0.640900000000     0.745770000000     0          
H2       H      0.439500000000     0.642400000000     0.739300000000     0          
C9       C      0.407700000000     0.658600000000     0.881500000000     0          
H        H      0.610840000000     0.564910000000     0.838270000000     0          
O3       O      0.374380000000     0.785750000000     0.923720000000     0          
C3       C      0.364230000000     0.737040000000     0.971220000000     0          
H1       H      0.365900000000     0.730800000000     0.948300000000     0          
C5       C      0.359100000000     0.712410000000     0.995770000000     0          
H2       H      0.357600000000     0.689500000000     0.989300000000     0          
C9       C      0.341400000000     0.657700000000     0.131500000000     0          
H        H      0.435090000000     0.860840000000     0.088270000000     0          
C1       C      0.371610000000     0.796160000000     0.953840000000     0          
C2       C      0.366840000000     0.769870000000     0.980130000000     0          
C4       C      0.356200000000     0.720960000000     0.029040000000     0          
C6       C      0.351000000000     0.695960000000     0.054040000000     0          
C7       C      0.346900000000     0.675010000000     0.074990000000     0          
C8       C      0.344900000000     0.649890000000     0.100110000000     0          
O3       O      0.214250000000     0.625620000000     0.076280000000     0          
C3       C      0.262960000000     0.635770000000     0.028780000000     0          
H1       H      0.269200000000     0.634100000000     0.051700000000     0          
C5       C      0.287590000000     0.640900000000     0.004230000000     0          
H2       H      0.310500000000     0.642400000000     0.010700000000     0          
C9       C      0.342300000000     0.658600000000     0.868500000000     0          
H        H      0.139160000000     0.564910000000     0.911730000000     0          
O3       O      0.374380000000     0.464250000000     0.326280000000     0          
C3       C      0.364230000000     0.512960000000     0.278780000000     0          
H1       H      0.365900000000     0.519200000000     0.301700000000     0          
C5       C      0.359100000000     0.537590000000     0.254230000000     0          
H2       H      0.357600000000     0.560500000000     0.260700000000     0          
C9       C      0.341400000000     0.592300000000     0.118500000000     0          
H        H      0.435090000000     0.389160000000     0.161730000000     0          
C1       C      0.371610000000     0.453840000000     0.296160000000     0          
C2       C      0.366840000000     0.480130000000     0.269870000000     0          
C4       C      0.356200000000     0.529040000000     0.220960000000     0          
C6       C      0.351000000000     0.554040000000     0.195960000000     0          
C7       C      0.346900000000     0.574990000000     0.175010000000     0          
C8       C      0.344900000000     0.600110000000     0.149890000000     0          
O3       O      0.535750000000     0.624380000000     0.576280000000     0          
C3       C      0.487040000000     0.614230000000     0.528780000000     0          
H1       H      0.480800000000     0.615900000000     0.551700000000     0          
C5       C      0.462410000000     0.609100000000     0.504230000000     0          
H2       H      0.439500000000     0.607600000000     0.510700000000     0          
C9       C      0.407700000000     0.591400000000     0.368500000000     0          
H        H      0.610840000000     0.685090000000     0.411730000000     0          
O3       O      0.375620000000     0.785750000000     0.826280000000     0          
C3       C      0.385770000000     0.737040000000     0.778780000000     0          
H1       H      0.384100000000     0.730800000000     0.801700000000     0          
C5       C      0.390900000000     0.712410000000     0.754230000000     0          
H2       H      0.392400000000     0.689500000000     0.760700000000     0          
C9       C      0.408600000000     0.657700000000     0.618500000000     0          
H        H      0.314910000000     0.860840000000     0.661730000000     0          
O3       O      0.673720000000     0.214250000000     0.124380000000     0          
C3       C      0.721220000000     0.262960000000     0.114230000000     0          
H1       H      0.698300000000     0.269200000000     0.115900000000     0          
C5       C      0.745770000000     0.287590000000     0.109100000000     0          
H2       H      0.739300000000     0.310500000000     0.107600000000     0          
C9       C      0.881500000000     0.342300000000     0.091400000000     0          
H        H      0.838270000000     0.139160000000     0.185090000000     0          
O3       O      0.785750000000     0.923720000000     0.374380000000     0          
C3       C      0.737040000000     0.971220000000     0.364230000000     0          
H1       H      0.730800000000     0.948300000000     0.365900000000     0          
C5       C      0.712410000000     0.995770000000     0.359100000000     0          
H2       H      0.689500000000     0.989300000000     0.357600000000     0          
C9       C      0.657700000000     0.131500000000     0.341400000000     0          
H        H      0.860840000000     0.088270000000     0.435090000000     0          
O3       O      0.076280000000     0.035750000000     0.624380000000     0          
C3       C      0.028780000000     0.987040000000     0.614230000000     0          
H1       H      0.051700000000     0.980800000000     0.615900000000     0          
C5       C      0.004230000000     0.962410000000     0.609100000000     0          
H2       H      0.010700000000     0.939500000000     0.607600000000     0          
C9       C      0.868500000000     0.907700000000     0.591400000000     0          
H        H      0.911730000000     0.110840000000     0.685090000000     0          
C1       C      0.046160000000     0.046160000000     0.621610000000     0          
C2       C      0.019870000000     0.019870000000     0.616840000000     0          
C4       C      0.970960000000     0.970960000000     0.606200000000     0          
C6       C      0.945960000000     0.945960000000     0.601000000000     0          
C7       C      0.925010000000     0.925010000000     0.596900000000     0          
C8       C      0.899890000000     0.899890000000     0.594900000000     0          
O3       O      0.964250000000     0.326280000000     0.874380000000     0          
C3       C      0.012960000000     0.278780000000     0.864230000000     0          
H1       H      0.019200000000     0.301700000000     0.865900000000     0          
C5       C      0.037590000000     0.254230000000     0.859100000000     0          
H2       H      0.060500000000     0.260700000000     0.857600000000     0          
C9       C      0.092300000000     0.118500000000     0.841400000000     0          
H        H      0.889160000000     0.161730000000     0.935090000000     0          
O3       O      0.673720000000     0.035750000000     0.125620000000     0          
C3       C      0.721220000000     0.987040000000     0.135770000000     0          
H1       H      0.698300000000     0.980800000000     0.134100000000     0          
C5       C      0.745770000000     0.962410000000     0.140900000000     0          
H2       H      0.739300000000     0.939500000000     0.142400000000     0          
C9       C      0.881500000000     0.907700000000     0.158600000000     0          
H        H      0.838270000000     0.110840000000     0.064910000000     0          
O3       O      0.964250000000     0.923720000000     0.375620000000     0          
C3       C      0.012960000000     0.971220000000     0.385770000000     0          
H1       H      0.019200000000     0.948300000000     0.384100000000     0          
C5       C      0.037590000000     0.995770000000     0.390900000000     0          
H2       H      0.060500000000     0.989300000000     0.392400000000     0          
C9       C      0.092300000000     0.131500000000     0.408600000000     0          
H        H      0.889160000000     0.088270000000     0.314910000000     0          
C1       C      0.953840000000     0.953840000000     0.378390000000     0          
C2       C      0.980130000000     0.980130000000     0.383160000000     0          
C4       C      0.029040000000     0.029040000000     0.393800000000     0          
C6       C      0.054040000000     0.054040000000     0.399000000000     0          
C7       C      0.074990000000     0.074990000000     0.403100000000     0          
C8       C      0.100110000000     0.100110000000     0.405100000000     0          
O3       O      0.076280000000     0.214250000000     0.625620000000     0          
C3       C      0.028780000000     0.262960000000     0.635770000000     0          
H1       H      0.051700000000     0.269200000000     0.634100000000     0          
C5       C      0.004230000000     0.287590000000     0.640900000000     0          
H2       H      0.010700000000     0.310500000000     0.642400000000     0          
C9       C      0.868500000000     0.342300000000     0.658600000000     0          
H        H      0.911730000000     0.139160000000     0.564910000000     0          
O3       O      0.785750000000     0.326280000000     0.875620000000     0          
C3       C      0.737040000000     0.278780000000     0.885770000000     0          
H1       H      0.730800000000     0.301700000000     0.884100000000     0          
C5       C      0.712410000000     0.254230000000     0.890900000000     0          
H2       H      0.689500000000     0.260700000000     0.892400000000     0          
C9       C      0.657700000000     0.118500000000     0.908600000000     0          
H        H      0.860840000000     0.161730000000     0.814910000000     0          
O3       O      0.624380000000     0.673720000000     0.714250000000     0          
C3       C      0.614230000000     0.721220000000     0.762960000000     0          
H1       H      0.615900000000     0.698300000000     0.769200000000     0          
C5       C      0.609100000000     0.745770000000     0.787590000000     0          
H2       H      0.607600000000     0.739300000000     0.810500000000     0          
C9       C      0.591400000000     0.881500000000     0.842300000000     0          
H        H      0.685090000000     0.838270000000     0.639160000000     0          
O3       O      0.124380000000     0.076280000000     0.535750000000     0          
C3       C      0.114230000000     0.028780000000     0.487040000000     0          
H1       H      0.115900000000     0.051700000000     0.480800000000     0          
C5       C      0.109100000000     0.004230000000     0.462410000000     0          
H2       H      0.107600000000     0.010700000000     0.439500000000     0          
C9       C      0.091400000000     0.868500000000     0.407700000000     0          
H        H      0.185090000000     0.911730000000     0.610840000000     0          
O3       O      0.923720000000     0.374380000000     0.785750000000     0          
C3       C      0.971220000000     0.364230000000     0.737040000000     0          
H1       H      0.948300000000     0.365900000000     0.730800000000     0          
C5       C      0.995770000000     0.359100000000     0.712410000000     0          
H2       H      0.989300000000     0.357600000000     0.689500000000     0          
C9       C      0.131500000000     0.341400000000     0.657700000000     0          
H        H      0.088270000000     0.435090000000     0.860840000000     0          
O3       O      0.625620000000     0.173720000000     0.035750000000     0          
C3       C      0.635770000000     0.221220000000     0.987040000000     0          
H1       H      0.634100000000     0.198300000000     0.980800000000     0          
C5       C      0.640900000000     0.245770000000     0.962410000000     0          
H2       H      0.642400000000     0.239300000000     0.939500000000     0          
C9       C      0.658600000000     0.381500000000     0.907700000000     0          
H        H      0.564910000000     0.338270000000     0.110840000000     0          
C1       C      0.628390000000     0.203840000000     0.046160000000     0          
C2       C      0.633160000000     0.230130000000     0.019870000000     0          
C4       C      0.643800000000     0.279040000000     0.970960000000     0          
C6       C      0.649000000000     0.304040000000     0.945960000000     0          
C7       C      0.653100000000     0.324990000000     0.925010000000     0          
C8       C      0.655100000000     0.350110000000     0.899890000000     0          
O3       O      0.326280000000     0.875620000000     0.785750000000     0          
C3       C      0.278780000000     0.885770000000     0.737040000000     0          
H1       H      0.301700000000     0.884100000000     0.730800000000     0          
C5       C      0.254230000000     0.890900000000     0.712410000000     0          
H2       H      0.260700000000     0.892400000000     0.689500000000     0          
C9       C      0.118500000000     0.908600000000     0.657700000000     0          
H        H      0.161730000000     0.814910000000     0.860840000000     0          
O3       O      0.625620000000     0.576280000000     0.714250000000     0          
C3       C      0.635770000000     0.528780000000     0.762960000000     0          
H1       H      0.634100000000     0.551700000000     0.769200000000     0          
C5       C      0.640900000000     0.504230000000     0.787590000000     0          
H2       H      0.642400000000     0.510700000000     0.810500000000     0          
C9       C      0.658600000000     0.368500000000     0.842300000000     0          
H        H      0.564910000000     0.411730000000     0.639160000000     0          
C1       C      0.628390000000     0.546160000000     0.703840000000     0          
C2       C      0.633160000000     0.519870000000     0.730130000000     0          
C4       C      0.643800000000     0.470960000000     0.779040000000     0          
C6       C      0.649000000000     0.445960000000     0.804040000000     0          
C7       C      0.653100000000     0.425010000000     0.824990000000     0          
C8       C      0.655100000000     0.399890000000     0.850110000000     0          
O3       O      0.923720000000     0.375620000000     0.964250000000     0          
C3       C      0.971220000000     0.385770000000     0.012960000000     0          
H1       H      0.948300000000     0.384100000000     0.019200000000     0          
C5       C      0.995770000000     0.390900000000     0.037590000000     0          
H2       H      0.989300000000     0.392400000000     0.060500000000     0          
C9       C      0.131500000000     0.408600000000     0.092300000000     0          
H        H      0.088270000000     0.314910000000     0.889160000000     0          
O3       O      0.826280000000     0.874380000000     0.464250000000     0          
C3       C      0.778780000000     0.864230000000     0.512960000000     0          
H1       H      0.801700000000     0.865900000000     0.519200000000     0          
C5       C      0.754230000000     0.859100000000     0.537590000000     0          
H2       H      0.760700000000     0.857600000000     0.560500000000     0          
C9       C      0.618500000000     0.841400000000     0.592300000000     0          
H        H      0.661730000000     0.935090000000     0.389160000000     0          
O3       O      0.785750000000     0.375620000000     0.826280000000     0          
C3       C      0.737040000000     0.385770000000     0.778780000000     0          
H1       H      0.730800000000     0.384100000000     0.801700000000     0          
C5       C      0.712410000000     0.390900000000     0.754230000000     0          
H2       H      0.689500000000     0.392400000000     0.760700000000     0          
C9       C      0.657700000000     0.408600000000     0.618500000000     0          
H        H      0.860840000000     0.314910000000     0.661730000000     0          
O3       O      0.624380000000     0.535750000000     0.576280000000     0          
C3       C      0.614230000000     0.487040000000     0.528780000000     0          
H1       H      0.615900000000     0.480800000000     0.551700000000     0          
C5       C      0.609100000000     0.462410000000     0.504230000000     0          
H2       H      0.607600000000     0.439500000000     0.510700000000     0          
C9       C      0.591400000000     0.407700000000     0.368500000000     0          
H        H      0.685090000000     0.610840000000     0.411730000000     0          
O3       O      0.464250000000     0.374380000000     0.326280000000     0          
C3       C      0.512960000000     0.364230000000     0.278780000000     0          
H1       H      0.519200000000     0.365900000000     0.301700000000     0          
C5       C      0.537590000000     0.359100000000     0.254230000000     0          
H2       H      0.560500000000     0.357600000000     0.260700000000     0          
C9       C      0.592300000000     0.341400000000     0.118500000000     0          
H        H      0.389160000000     0.435090000000     0.161730000000     0          
O3       O      0.625620000000     0.214250000000     0.076280000000     0          
C3       C      0.635770000000     0.262960000000     0.028780000000     0          
H1       H      0.634100000000     0.269200000000     0.051700000000     0          
C5       C      0.640900000000     0.287590000000     0.004230000000     0          
H2       H      0.642400000000     0.310500000000     0.010700000000     0          
C9       C      0.658600000000     0.342300000000     0.868500000000     0          
H        H      0.564910000000     0.139160000000     0.911730000000     0          
O3       O      0.785750000000     0.374380000000     0.923720000000     0          
C3       C      0.737040000000     0.364230000000     0.971220000000     0          
H1       H      0.730800000000     0.365900000000     0.948300000000     0          
C5       C      0.712410000000     0.359100000000     0.995770000000     0          
H2       H      0.689500000000     0.357600000000     0.989300000000     0          
C9       C      0.657700000000     0.341400000000     0.131500000000     0          
H        H      0.860840000000     0.435090000000     0.088270000000     0          
O3       O      0.625620000000     0.535750000000     0.673720000000     0          
C3       C      0.635770000000     0.487040000000     0.721220000000     0          
H1       H      0.634100000000     0.480800000000     0.698300000000     0          
C5       C      0.640900000000     0.462410000000     0.745770000000     0          
H2       H      0.642400000000     0.439500000000     0.739300000000     0          
C9       C      0.658600000000     0.407700000000     0.881500000000     0          
H        H      0.564910000000     0.610840000000     0.838270000000     0          
O3       O      0.464250000000     0.375620000000     0.423720000000     0          
C3       C      0.512960000000     0.385770000000     0.471220000000     0          
H1       H      0.519200000000     0.384100000000     0.448300000000     0          
C5       C      0.537590000000     0.390900000000     0.495770000000     0          
H2       H      0.560500000000     0.392400000000     0.489300000000     0          
C9       C      0.592300000000     0.408600000000     0.631500000000     0          
H        H      0.389160000000     0.314910000000     0.588270000000     0          
O3       O      0.624380000000     0.214250000000     0.173720000000     0          
C3       C      0.614230000000     0.262960000000     0.221220000000     0          
H1       H      0.615900000000     0.269200000000     0.198300000000     0          
C5       C      0.609100000000     0.287590000000     0.245770000000     0          
H2       H      0.607600000000     0.310500000000     0.239300000000     0          
C9       C      0.591400000000     0.342300000000     0.381500000000     0          
H        H      0.685090000000     0.139160000000     0.338270000000     0          
O3       O      0.326280000000     0.785750000000     0.875620000000     0          
C3       C      0.278780000000     0.737040000000     0.885770000000     0          
H1       H      0.301700000000     0.730800000000     0.884100000000     0          
C5       C      0.254230000000     0.712410000000     0.890900000000     0          
H2       H      0.260700000000     0.689500000000     0.892400000000     0          
C9       C      0.118500000000     0.657700000000     0.908600000000     0          
H        H      0.161730000000     0.860840000000     0.814910000000     0          
O3       O      0.214250000000     0.076280000000     0.625620000000     0          
C3       C      0.262960000000     0.028780000000     0.635770000000     0          
H1       H      0.269200000000     0.051700000000     0.634100000000     0          
C5       C      0.287590000000     0.004230000000     0.640900000000     0          
H2       H      0.310500000000     0.010700000000     0.642400000000     0          
C9       C      0.342300000000     0.868500000000     0.658600000000     0          
H        H      0.139160000000     0.911730000000     0.564910000000     0          
O3       O      0.923720000000     0.964250000000     0.375620000000     0          
C3       C      0.971220000000     0.012960000000     0.385770000000     0          
H1       H      0.948300000000     0.019200000000     0.384100000000     0          
C5       C      0.995770000000     0.037590000000     0.390900000000     0          
H2       H      0.989300000000     0.060500000000     0.392400000000     0          
C9       C      0.131500000000     0.092300000000     0.408600000000     0          
H        H      0.088270000000     0.889160000000     0.314910000000     0          
O3       O      0.035750000000     0.673720000000     0.125620000000     0          
C3       C      0.987040000000     0.721220000000     0.135770000000     0          
H1       H      0.980800000000     0.698300000000     0.134100000000     0          
C5       C      0.962410000000     0.745770000000     0.140900000000     0          
H2       H      0.939500000000     0.739300000000     0.142400000000     0          
C9       C      0.907700000000     0.881500000000     0.158600000000     0          
H        H      0.110840000000     0.838270000000     0.064910000000     0          
O3       O      0.326280000000     0.964250000000     0.874380000000     0          
C3       C      0.278780000000     0.012960000000     0.864230000000     0          
H1       H      0.301700000000     0.019200000000     0.865900000000     0          
C5       C      0.254230000000     0.037590000000     0.859100000000     0          
H2       H      0.260700000000     0.060500000000     0.857600000000     0          
C9       C      0.118500000000     0.092300000000     0.841400000000     0          
H        H      0.161730000000     0.889160000000     0.935090000000     0          
O3       O      0.035750000000     0.076280000000     0.624380000000     0          
C3       C      0.987040000000     0.028780000000     0.614230000000     0          
H1       H      0.980800000000     0.051700000000     0.615900000000     0          
C5       C      0.962410000000     0.004230000000     0.609100000000     0          
H2       H      0.939500000000     0.010700000000     0.607600000000     0          
C9       C      0.907700000000     0.868500000000     0.591400000000     0          
H        H      0.110840000000     0.911730000000     0.685090000000     0          
O3       O      0.923720000000     0.785750000000     0.374380000000     0          
C3       C      0.971220000000     0.737040000000     0.364230000000     0          
H1       H      0.948300000000     0.730800000000     0.365900000000     0          
C5       C      0.995770000000     0.712410000000     0.359100000000     0          
H2       H      0.989300000000     0.689500000000     0.357600000000     0          
C9       C      0.131500000000     0.657700000000     0.341400000000     0          
H        H      0.088270000000     0.860840000000     0.435090000000     0          
O3       O      0.214250000000     0.673720000000     0.124380000000     0          
C3       C      0.262960000000     0.721220000000     0.114230000000     0          
H1       H      0.269200000000     0.698300000000     0.115900000000     0          
C5       C      0.287590000000     0.745770000000     0.109100000000     0          
H2       H      0.310500000000     0.739300000000     0.107600000000     0          
C9       C      0.342300000000     0.881500000000     0.091400000000     0          
H        H      0.139160000000     0.838270000000     0.185090000000     0          
O3       O      0.375620000000     0.326280000000     0.285750000000     0          
C3       C      0.385770000000     0.278780000000     0.237040000000     0          
H1       H      0.384100000000     0.301700000000     0.230800000000     0          
C5       C      0.390900000000     0.254230000000     0.212410000000     0          
H2       H      0.392400000000     0.260700000000     0.189500000000     0          
C9       C      0.408600000000     0.118500000000     0.157700000000     0          
H        H      0.314910000000     0.161730000000     0.360840000000     0          
O3       O      0.875620000000     0.923720000000     0.464250000000     0          
C3       C      0.885770000000     0.971220000000     0.512960000000     0          
H1       H      0.884100000000     0.948300000000     0.519200000000     0          
C5       C      0.890900000000     0.995770000000     0.537590000000     0          
H2       H      0.892400000000     0.989300000000     0.560500000000     0          
C9       C      0.908600000000     0.131500000000     0.592300000000     0          
H        H      0.814910000000     0.088270000000     0.389160000000     0          
O3       O      0.076280000000     0.625620000000     0.214250000000     0          
C3       C      0.028780000000     0.635770000000     0.262960000000     0          
H1       H      0.051700000000     0.634100000000     0.269200000000     0          
C5       C      0.004230000000     0.640900000000     0.287590000000     0          
H2       H      0.010700000000     0.642400000000     0.310500000000     0          
C9       C      0.868500000000     0.658600000000     0.342300000000     0          
H        H      0.911730000000     0.564910000000     0.139160000000     0          
O3       O      0.374380000000     0.826280000000     0.964250000000     0          
C3       C      0.364230000000     0.778780000000     0.012960000000     0          
H1       H      0.365900000000     0.801700000000     0.019200000000     0          
C5       C      0.359100000000     0.754230000000     0.037590000000     0          
H2       H      0.357600000000     0.760700000000     0.060500000000     0          
C9       C      0.341400000000     0.618500000000     0.092300000000     0          
H        H      0.435090000000     0.661730000000     0.889160000000     0          
O3       O      0.673720000000     0.124380000000     0.214250000000     0          
C3       C      0.721220000000     0.114230000000     0.262960000000     0          
H1       H      0.698300000000     0.115900000000     0.269200000000     0          
C5       C      0.745770000000     0.109100000000     0.287590000000     0          
H2       H      0.739300000000     0.107600000000     0.310500000000     0          
C9       C      0.881500000000     0.091400000000     0.342300000000     0          
H        H      0.838270000000     0.185090000000     0.139160000000     0          
O3       O      0.374380000000     0.423720000000     0.285750000000     0          
C3       C      0.364230000000     0.471220000000     0.237040000000     0          
H1       H      0.365900000000     0.448300000000     0.230800000000     0          
C5       C      0.359100000000     0.495770000000     0.212410000000     0          
H2       H      0.357600000000     0.489300000000     0.189500000000     0          
C9       C      0.341400000000     0.631500000000     0.157700000000     0          
H        H      0.435090000000     0.588270000000     0.360840000000     0          
O3       O      0.076280000000     0.624380000000     0.035750000000     0          
C3       C      0.028780000000     0.614230000000     0.987040000000     0          
H1       H      0.051700000000     0.615900000000     0.980800000000     0          
C5       C      0.004230000000     0.609100000000     0.962410000000     0          
H2       H      0.010700000000     0.607600000000     0.939500000000     0          
C9       C      0.868500000000     0.591400000000     0.907700000000     0          
H        H      0.911730000000     0.685090000000     0.110840000000     0          
O3       O      0.173720000000     0.125620000000     0.535750000000     0          
C3       C      0.221220000000     0.135770000000     0.487040000000     0          
H1       H      0.198300000000     0.134100000000     0.480800000000     0          
C5       C      0.245770000000     0.140900000000     0.462410000000     0          
H2       H      0.239300000000     0.142400000000     0.439500000000     0          
C9       C      0.381500000000     0.158600000000     0.407700000000     0          
H        H      0.338270000000     0.064910000000     0.610840000000     0          


