data_OXOLET

_audit_creation_method RASPA-1.0
_audit_creation_date 2020-11-2
_audit_author_name 'Rocio Bueno-Perez'

_cell_length_a    39.8144
_cell_length_b    39.8144
_cell_length_c    39.8144
_cell_angle_alpha 90
_cell_angle_beta  90
_cell_angle_gamma 90
_cell_volume      63113.2

_symmetry_cell_setting          cubic
_symmetry_space_group_name_Hall 'P 1'
_symmetry_space_group_name_H-M  'P 1'
_symmetry_Int_Tables_number     1

_symmetry_equiv_pos_as_xyz 'x,y,z'

loop_
_atom_site_label
_atom_site_type_symbol
_atom_site_fract_x
_atom_site_fract_y
_atom_site_fract_z
_atom_site_charge
O1       O      0.214080000000     0.076230000000     0.125430000000     0          
C3       C      0.263520000000     0.028890000000     0.136290000000     0          
H1       H      0.269800000000     0.051800000000     0.134200000000     0          
C6       C      0.383420000000     0.908000000000     0.159670000000     0          
C7       C      0.287750000000     0.004900000000     0.142000000000     0          
H2       H      0.310600000000     0.011400000000     0.144000000000     0          
O4       O      0.391500000000     0.940660000000     0.162200000000     0          
C10      C      0.428400000000     0.949100000000     0.170600000000     0          
Zr1      Zr     0.187160000000     0.125000000000     0.125000000000     0          
C1       C      0.203850000000     0.046150000000     0.127760000000     0          
C2       C      0.230160000000     0.019840000000     0.133550000000     0          
C4       C      0.350290000000     0.899710000000     0.157380000000     0          
C5       C      0.278800000000     0.971200000000     0.144820000000     0          
C8       C      0.304120000000     0.945880000000     0.150410000000     0          
C9       C      0.324950000000     0.925050000000     0.154770000000     0          
O2       O      0.154480000000     0.154480000000     0.095520000000     0          
O3       O      0.157110000000     0.092890000000     0.092890000000     0          
O1       O      0.923770000000     0.464080000000     0.375430000000     0          
C3       C      0.971110000000     0.513520000000     0.386290000000     0          
H1       H      0.948200000000     0.519800000000     0.384200000000     0          
C6       C      0.092000000000     0.633420000000     0.409670000000     0          
C7       C      0.995100000000     0.537750000000     0.392000000000     0          
H2       H      0.988600000000     0.560600000000     0.394000000000     0          
O4       O      0.059340000000     0.641500000000     0.412200000000     0          
C10      C      0.050900000000     0.678400000000     0.420600000000     0          
Zr1      Zr     0.875000000000     0.437160000000     0.375000000000     0          
C1       C      0.953850000000     0.453850000000     0.377760000000     0          
C2       C      0.980160000000     0.480160000000     0.383550000000     0          
C4       C      0.100290000000     0.600290000000     0.407380000000     0          
C5       C      0.028800000000     0.528800000000     0.394820000000     0          
C8       C      0.054120000000     0.554120000000     0.400410000000     0          
C9       C      0.074950000000     0.574950000000     0.404770000000     0          
O2       O      0.845520000000     0.404480000000     0.345520000000     0          
O3       O      0.907110000000     0.407110000000     0.342890000000     0          
O1       O      0.535920000000     0.173770000000     0.625430000000     0          
C3       C      0.486480000000     0.221110000000     0.636290000000     0          
H1       H      0.480200000000     0.198200000000     0.634200000000     0          
C6       C      0.366580000000     0.342000000000     0.659670000000     0          
C7       C      0.462250000000     0.245100000000     0.642000000000     0          
H2       H      0.439400000000     0.238600000000     0.644000000000     0          
O4       O      0.358500000000     0.309340000000     0.662200000000     0          
C10      C      0.321600000000     0.300900000000     0.670600000000     0          
Zr1      Zr     0.562840000000     0.125000000000     0.625000000000     0          
C1       C      0.546150000000     0.203850000000     0.627760000000     0          
C2       C      0.519840000000     0.230160000000     0.633550000000     0          
C4       C      0.399710000000     0.350290000000     0.657380000000     0          
C5       C      0.471200000000     0.278800000000     0.644820000000     0          
C8       C      0.445880000000     0.304120000000     0.650410000000     0          
C9       C      0.425050000000     0.324950000000     0.654770000000     0          
O2       O      0.595520000000     0.095520000000     0.595520000000     0          
O3       O      0.592890000000     0.157110000000     0.592890000000     0          
O1       O      0.826230000000     0.785920000000     0.875430000000     0          
C3       C      0.778890000000     0.736480000000     0.886290000000     0          
H1       H      0.801800000000     0.730200000000     0.884200000000     0          
C6       C      0.658000000000     0.616580000000     0.909670000000     0          
C7       C      0.754900000000     0.712250000000     0.892000000000     0          
H2       H      0.761400000000     0.689400000000     0.894000000000     0          
O4       O      0.690660000000     0.608500000000     0.912200000000     0          
C10      C      0.699100000000     0.571600000000     0.920600000000     0          
Zr1      Zr     0.875000000000     0.812840000000     0.875000000000     0          
C1       C      0.796150000000     0.796150000000     0.877760000000     0          
C2       C      0.769840000000     0.769840000000     0.883550000000     0          
C4       C      0.649710000000     0.649710000000     0.907380000000     0          
C5       C      0.721200000000     0.721200000000     0.894820000000     0          
C8       C      0.695880000000     0.695880000000     0.900410000000     0          
C9       C      0.675050000000     0.675050000000     0.904770000000     0          
O2       O      0.904480000000     0.845520000000     0.845520000000     0          
O3       O      0.842890000000     0.842890000000     0.842890000000     0          
O1       O      0.214080000000     0.173770000000     0.124570000000     0          
C3       C      0.263520000000     0.221110000000     0.113710000000     0          
H1       H      0.269800000000     0.198200000000     0.115800000000     0          
C6       C      0.383420000000     0.342000000000     0.090330000000     0          
C7       C      0.287750000000     0.245100000000     0.108000000000     0          
H2       H      0.310600000000     0.238600000000     0.106000000000     0          
O4       O      0.391500000000     0.309340000000     0.087800000000     0          
C10      C      0.428400000000     0.300900000000     0.079400000000     0          
C1       C      0.203850000000     0.203850000000     0.122240000000     0          
C2       C      0.230160000000     0.230160000000     0.116450000000     0          
C4       C      0.350290000000     0.350290000000     0.092620000000     0          
C5       C      0.278800000000     0.278800000000     0.105180000000     0          
C8       C      0.304120000000     0.304120000000     0.099590000000     0          
C9       C      0.324950000000     0.324950000000     0.095230000000     0          
O2       O      0.154480000000     0.095520000000     0.154480000000     0          
O3       O      0.157110000000     0.157110000000     0.157110000000     0          
O1       O      0.826230000000     0.464080000000     0.374570000000     0          
C3       C      0.778890000000     0.513520000000     0.363710000000     0          
H1       H      0.801800000000     0.519800000000     0.365800000000     0          
C6       C      0.658000000000     0.633420000000     0.340330000000     0          
C7       C      0.754900000000     0.537750000000     0.358000000000     0          
H2       H      0.761400000000     0.560600000000     0.356000000000     0          
O4       O      0.690660000000     0.641500000000     0.337800000000     0          
C10      C      0.699100000000     0.678400000000     0.329400000000     0          
C1       C      0.796150000000     0.453850000000     0.372240000000     0          
C2       C      0.769840000000     0.480160000000     0.366450000000     0          
C4       C      0.649710000000     0.600290000000     0.342620000000     0          
C5       C      0.721200000000     0.528800000000     0.355180000000     0          
C8       C      0.695880000000     0.554120000000     0.349590000000     0          
C9       C      0.675050000000     0.574950000000     0.345230000000     0          
O2       O      0.904480000000     0.404480000000     0.404480000000     0          
O3       O      0.842890000000     0.407110000000     0.407110000000     0          
O1       O      0.535920000000     0.076230000000     0.624570000000     0          
C3       C      0.486480000000     0.028890000000     0.613710000000     0          
H1       H      0.480200000000     0.051800000000     0.615800000000     0          
C6       C      0.366580000000     0.908000000000     0.590330000000     0          
C7       C      0.462250000000     0.004900000000     0.608000000000     0          
H2       H      0.439400000000     0.011400000000     0.606000000000     0          
O4       O      0.358500000000     0.940660000000     0.587800000000     0          
C10      C      0.321600000000     0.949100000000     0.579400000000     0          
C1       C      0.546150000000     0.046150000000     0.622240000000     0          
C2       C      0.519840000000     0.019840000000     0.616450000000     0          
C4       C      0.399710000000     0.899710000000     0.592620000000     0          
C5       C      0.471200000000     0.971200000000     0.605180000000     0          
C8       C      0.445880000000     0.945880000000     0.599590000000     0          
C9       C      0.425050000000     0.925050000000     0.595230000000     0          
O2       O      0.595520000000     0.154480000000     0.654480000000     0          
O3       O      0.592890000000     0.092890000000     0.657110000000     0          
O1       O      0.923770000000     0.785920000000     0.874570000000     0          
C3       C      0.971110000000     0.736480000000     0.863710000000     0          
H1       H      0.948200000000     0.730200000000     0.865800000000     0          
C6       C      0.092000000000     0.616580000000     0.840330000000     0          
C7       C      0.995100000000     0.712250000000     0.858000000000     0          
H2       H      0.988600000000     0.689400000000     0.856000000000     0          
O4       O      0.059340000000     0.608500000000     0.837800000000     0          
C10      C      0.050900000000     0.571600000000     0.829400000000     0          
C1       C      0.953850000000     0.796150000000     0.872240000000     0          
C2       C      0.980160000000     0.769840000000     0.866450000000     0          
C4       C      0.100290000000     0.649710000000     0.842620000000     0          
C5       C      0.028800000000     0.721200000000     0.855180000000     0          
C8       C      0.054120000000     0.695880000000     0.849590000000     0          
C9       C      0.074950000000     0.675050000000     0.845230000000     0          
O2       O      0.845520000000     0.845520000000     0.904480000000     0          
O3       O      0.907110000000     0.842890000000     0.907110000000     0          
O1       O      0.125430000000     0.214080000000     0.076230000000     0          
C3       C      0.136290000000     0.263520000000     0.028890000000     0          
H1       H      0.134200000000     0.269800000000     0.051800000000     0          
C6       C      0.159670000000     0.383420000000     0.908000000000     0          
C7       C      0.142000000000     0.287750000000     0.004900000000     0          
H2       H      0.144000000000     0.310600000000     0.011400000000     0          
O4       O      0.162200000000     0.391500000000     0.940660000000     0          
C10      C      0.170600000000     0.428400000000     0.949100000000     0          
Zr1      Zr     0.125000000000     0.187160000000     0.125000000000     0          
C1       C      0.127760000000     0.203850000000     0.046150000000     0          
C2       C      0.133550000000     0.230160000000     0.019840000000     0          
C4       C      0.157380000000     0.350290000000     0.899710000000     0          
C5       C      0.144820000000     0.278800000000     0.971200000000     0          
C8       C      0.150410000000     0.304120000000     0.945880000000     0          
C9       C      0.154770000000     0.324950000000     0.925050000000     0          
O2       O      0.095520000000     0.154480000000     0.154480000000     0          
O3       O      0.092890000000     0.157110000000     0.092890000000     0          
O1       O      0.785920000000     0.375430000000     0.326230000000     0          
C3       C      0.736480000000     0.386290000000     0.278890000000     0          
H1       H      0.730200000000     0.384200000000     0.301800000000     0          
C6       C      0.616580000000     0.409670000000     0.158000000000     0          
C7       C      0.712250000000     0.392000000000     0.254900000000     0          
H2       H      0.689400000000     0.394000000000     0.261400000000     0          
O4       O      0.608500000000     0.412200000000     0.190660000000     0          
C10      C      0.571600000000     0.420600000000     0.199100000000     0          
Zr1      Zr     0.812840000000     0.375000000000     0.375000000000     0          
C1       C      0.796150000000     0.377760000000     0.296150000000     0          
C2       C      0.769840000000     0.383550000000     0.269840000000     0          
C4       C      0.649710000000     0.407380000000     0.149710000000     0          
C5       C      0.721200000000     0.394820000000     0.221200000000     0          
C8       C      0.695880000000     0.400410000000     0.195880000000     0          
C9       C      0.675050000000     0.404770000000     0.175050000000     0          
O2       O      0.845520000000     0.345520000000     0.404480000000     0          
O3       O      0.842890000000     0.342890000000     0.342890000000     0          
O1       O      0.624570000000     0.035920000000     0.576230000000     0          
C3       C      0.613710000000     0.986480000000     0.528890000000     0          
H1       H      0.615800000000     0.980200000000     0.551800000000     0          
C6       C      0.590330000000     0.866580000000     0.408000000000     0          
C7       C      0.608000000000     0.962250000000     0.504900000000     0          
H2       H      0.606000000000     0.939400000000     0.511400000000     0          
O4       O      0.587800000000     0.858500000000     0.440660000000     0          
C10      C      0.579400000000     0.821600000000     0.449100000000     0          
Zr1      Zr     0.625000000000     0.062840000000     0.625000000000     0          
C1       C      0.622240000000     0.046150000000     0.546150000000     0          
C2       C      0.616450000000     0.019840000000     0.519840000000     0          
C4       C      0.592620000000     0.899710000000     0.399710000000     0          
C5       C      0.605180000000     0.971200000000     0.471200000000     0          
C8       C      0.599590000000     0.945880000000     0.445880000000     0          
C9       C      0.595230000000     0.925050000000     0.425050000000     0          
O2       O      0.654480000000     0.095520000000     0.654480000000     0          
O3       O      0.657110000000     0.092890000000     0.592890000000     0          
O1       O      0.964080000000     0.874570000000     0.826230000000     0          
C3       C      0.013520000000     0.863710000000     0.778890000000     0          
H1       H      0.019800000000     0.865800000000     0.801800000000     0          
C6       C      0.133420000000     0.840330000000     0.658000000000     0          
C7       C      0.037750000000     0.858000000000     0.754900000000     0          
H2       H      0.060600000000     0.856000000000     0.761400000000     0          
O4       O      0.141500000000     0.837800000000     0.690660000000     0          
C10      C      0.178400000000     0.829400000000     0.699100000000     0          
Zr1      Zr     0.937160000000     0.875000000000     0.875000000000     0          
C1       C      0.953850000000     0.872240000000     0.796150000000     0          
C2       C      0.980160000000     0.866450000000     0.769840000000     0          
C4       C      0.100290000000     0.842620000000     0.649710000000     0          
C5       C      0.028800000000     0.855180000000     0.721200000000     0          
C8       C      0.054120000000     0.849590000000     0.695880000000     0          
C9       C      0.074950000000     0.845230000000     0.675050000000     0          
O2       O      0.904480000000     0.904480000000     0.904480000000     0          
O3       O      0.907110000000     0.907110000000     0.842890000000     0          
O1       O      0.125430000000     0.035920000000     0.173770000000     0          
C3       C      0.136290000000     0.986480000000     0.221110000000     0          
H1       H      0.134200000000     0.980200000000     0.198200000000     0          
C6       C      0.159670000000     0.866580000000     0.342000000000     0          
C7       C      0.142000000000     0.962250000000     0.245100000000     0          
H2       H      0.144000000000     0.939400000000     0.238600000000     0          
O4       O      0.162200000000     0.858500000000     0.309340000000     0          
C10      C      0.170600000000     0.821600000000     0.300900000000     0          
Zr1      Zr     0.125000000000     0.062840000000     0.125000000000     0          
C1       C      0.127760000000     0.046150000000     0.203850000000     0          
C2       C      0.133550000000     0.019840000000     0.230160000000     0          
C4       C      0.157380000000     0.899710000000     0.350290000000     0          
C5       C      0.144820000000     0.971200000000     0.278800000000     0          
C8       C      0.150410000000     0.945880000000     0.304120000000     0          
C9       C      0.154770000000     0.925050000000     0.324950000000     0          
O2       O      0.095520000000     0.095520000000     0.095520000000     0          
O3       O      0.092890000000     0.092890000000     0.157110000000     0          
O1       O      0.964080000000     0.375430000000     0.423770000000     0          
C3       C      0.013520000000     0.386290000000     0.471110000000     0          
H1       H      0.019800000000     0.384200000000     0.448200000000     0          
C6       C      0.133420000000     0.409670000000     0.592000000000     0          
C7       C      0.037750000000     0.392000000000     0.495100000000     0          
H2       H      0.060600000000     0.394000000000     0.488600000000     0          
O4       O      0.141500000000     0.412200000000     0.559340000000     0          
C10      C      0.178400000000     0.420600000000     0.550900000000     0          
Zr1      Zr     0.937160000000     0.375000000000     0.375000000000     0          
C1       C      0.953850000000     0.377760000000     0.453850000000     0          
C2       C      0.980160000000     0.383550000000     0.480160000000     0          
C4       C      0.100290000000     0.407380000000     0.600290000000     0          
C5       C      0.028800000000     0.394820000000     0.528800000000     0          
C8       C      0.054120000000     0.400410000000     0.554120000000     0          
C9       C      0.074950000000     0.404770000000     0.574950000000     0          
O2       O      0.904480000000     0.345520000000     0.345520000000     0          
O3       O      0.907110000000     0.342890000000     0.407110000000     0          
O1       O      0.624570000000     0.214080000000     0.673770000000     0          
C3       C      0.613710000000     0.263520000000     0.721110000000     0          
H1       H      0.615800000000     0.269800000000     0.698200000000     0          
C6       C      0.590330000000     0.383420000000     0.842000000000     0          
C7       C      0.608000000000     0.287750000000     0.745100000000     0          
H2       H      0.606000000000     0.310600000000     0.738600000000     0          
O4       O      0.587800000000     0.391500000000     0.809340000000     0          
C10      C      0.579400000000     0.428400000000     0.800900000000     0          
Zr1      Zr     0.625000000000     0.187160000000     0.625000000000     0          
C1       C      0.622240000000     0.203850000000     0.703850000000     0          
C2       C      0.616450000000     0.230160000000     0.730160000000     0          
C4       C      0.592620000000     0.350290000000     0.850290000000     0          
C5       C      0.605180000000     0.278800000000     0.778800000000     0          
C8       C      0.599590000000     0.304120000000     0.804120000000     0          
C9       C      0.595230000000     0.324950000000     0.824950000000     0          
O2       O      0.654480000000     0.154480000000     0.595520000000     0          
O3       O      0.657110000000     0.157110000000     0.657110000000     0          
O1       O      0.785920000000     0.874570000000     0.923770000000     0          
C3       C      0.736480000000     0.863710000000     0.971110000000     0          
H1       H      0.730200000000     0.865800000000     0.948200000000     0          
C6       C      0.616580000000     0.840330000000     0.092000000000     0          
C7       C      0.712250000000     0.858000000000     0.995100000000     0          
H2       H      0.689400000000     0.856000000000     0.988600000000     0          
O4       O      0.608500000000     0.837800000000     0.059340000000     0          
C10      C      0.571600000000     0.829400000000     0.050900000000     0          
Zr1      Zr     0.812840000000     0.875000000000     0.875000000000     0          
C1       C      0.796150000000     0.872240000000     0.953850000000     0          
C2       C      0.769840000000     0.866450000000     0.980160000000     0          
C4       C      0.649710000000     0.842620000000     0.100290000000     0          
C5       C      0.721200000000     0.855180000000     0.028800000000     0          
C8       C      0.695880000000     0.849590000000     0.054120000000     0          
C9       C      0.675050000000     0.845230000000     0.074950000000     0          
O2       O      0.845520000000     0.904480000000     0.845520000000     0          
O3       O      0.842890000000     0.907110000000     0.907110000000     0          
O1       O      0.076230000000     0.125430000000     0.214080000000     0          
C3       C      0.028890000000     0.136290000000     0.263520000000     0          
H1       H      0.051800000000     0.134200000000     0.269800000000     0          
C6       C      0.908000000000     0.159670000000     0.383420000000     0          
C7       C      0.004900000000     0.142000000000     0.287750000000     0          
H2       H      0.011400000000     0.144000000000     0.310600000000     0          
O4       O      0.940660000000     0.162200000000     0.391500000000     0          
C10      C      0.949100000000     0.170600000000     0.428400000000     0          
Zr1      Zr     0.125000000000     0.125000000000     0.187160000000     0          
C1       C      0.046150000000     0.127760000000     0.203850000000     0          
C2       C      0.019840000000     0.133550000000     0.230160000000     0          
C4       C      0.899710000000     0.157380000000     0.350290000000     0          
C5       C      0.971200000000     0.144820000000     0.278800000000     0          
C8       C      0.945880000000     0.150410000000     0.304120000000     0          
C9       C      0.925050000000     0.154770000000     0.324950000000     0          
O1       O      0.576230000000     0.624570000000     0.035920000000     0          
C3       C      0.528890000000     0.613710000000     0.986480000000     0          
H1       H      0.551800000000     0.615800000000     0.980200000000     0          
C6       C      0.408000000000     0.590330000000     0.866580000000     0          
C7       C      0.504900000000     0.608000000000     0.962250000000     0          
H2       H      0.511400000000     0.606000000000     0.939400000000     0          
O4       O      0.440660000000     0.587800000000     0.858500000000     0          
C10      C      0.449100000000     0.579400000000     0.821600000000     0          
Zr1      Zr     0.625000000000     0.625000000000     0.062840000000     0          
C1       C      0.546150000000     0.622240000000     0.046150000000     0          
C2       C      0.519840000000     0.616450000000     0.019840000000     0          
C4       C      0.399710000000     0.592620000000     0.899710000000     0          
C5       C      0.471200000000     0.605180000000     0.971200000000     0          
C8       C      0.445880000000     0.599590000000     0.945880000000     0          
C9       C      0.425050000000     0.595230000000     0.925050000000     0          
O2       O      0.654480000000     0.654480000000     0.095520000000     0          
O3       O      0.592890000000     0.657110000000     0.092890000000     0          
O1       O      0.375430000000     0.826230000000     0.285920000000     0          
C3       C      0.386290000000     0.778890000000     0.236480000000     0          
H1       H      0.384200000000     0.801800000000     0.230200000000     0          
C6       C      0.409670000000     0.658000000000     0.116580000000     0          
C7       C      0.392000000000     0.754900000000     0.212250000000     0          
H2       H      0.394000000000     0.761400000000     0.189400000000     0          
O4       O      0.412200000000     0.690660000000     0.108500000000     0          
C10      C      0.420600000000     0.699100000000     0.071600000000     0          
Zr1      Zr     0.375000000000     0.875000000000     0.312840000000     0          
C1       C      0.377760000000     0.796150000000     0.296150000000     0          
C2       C      0.383550000000     0.769840000000     0.269840000000     0          
C4       C      0.407380000000     0.649710000000     0.149710000000     0          
C5       C      0.394820000000     0.721200000000     0.221200000000     0          
C8       C      0.400410000000     0.695880000000     0.195880000000     0          
C9       C      0.404770000000     0.675050000000     0.175050000000     0          
O2       O      0.345520000000     0.904480000000     0.345520000000     0          
O3       O      0.342890000000     0.842890000000     0.342890000000     0          
O1       O      0.173770000000     0.625430000000     0.535920000000     0          
C3       C      0.221110000000     0.636290000000     0.486480000000     0          
H1       H      0.198200000000     0.634200000000     0.480200000000     0          
C6       C      0.342000000000     0.659670000000     0.366580000000     0          
C7       C      0.245100000000     0.642000000000     0.462250000000     0          
H2       H      0.238600000000     0.644000000000     0.439400000000     0          
O4       O      0.309340000000     0.662200000000     0.358500000000     0          
C10      C      0.300900000000     0.670600000000     0.321600000000     0          
Zr1      Zr     0.125000000000     0.625000000000     0.562840000000     0          
C1       C      0.203850000000     0.627760000000     0.546150000000     0          
C2       C      0.230160000000     0.633550000000     0.519840000000     0          
C4       C      0.350290000000     0.657380000000     0.399710000000     0          
C5       C      0.278800000000     0.644820000000     0.471200000000     0          
C8       C      0.304120000000     0.650410000000     0.445880000000     0          
C9       C      0.324950000000     0.654770000000     0.425050000000     0          
O2       O      0.095520000000     0.595520000000     0.595520000000     0          
O3       O      0.157110000000     0.592890000000     0.592890000000     0          
O1       O      0.874570000000     0.423770000000     0.285920000000     0          
C3       C      0.863710000000     0.471110000000     0.236480000000     0          
H1       H      0.865800000000     0.448200000000     0.230200000000     0          
C6       C      0.840330000000     0.592000000000     0.116580000000     0          
C7       C      0.858000000000     0.495100000000     0.212250000000     0          
H2       H      0.856000000000     0.488600000000     0.189400000000     0          
O4       O      0.837800000000     0.559340000000     0.108500000000     0          
C10      C      0.829400000000     0.550900000000     0.071600000000     0          
Zr1      Zr     0.875000000000     0.375000000000     0.312840000000     0          
C1       C      0.872240000000     0.453850000000     0.296150000000     0          
C2       C      0.866450000000     0.480160000000     0.269840000000     0          
C4       C      0.842620000000     0.600290000000     0.149710000000     0          
C5       C      0.855180000000     0.528800000000     0.221200000000     0          
C8       C      0.849590000000     0.554120000000     0.195880000000     0          
C9       C      0.845230000000     0.574950000000     0.175050000000     0          
O1       O      0.173770000000     0.124570000000     0.214080000000     0          
C3       C      0.221110000000     0.113710000000     0.263520000000     0          
H1       H      0.198200000000     0.115800000000     0.269800000000     0          
C6       C      0.342000000000     0.090330000000     0.383420000000     0          
C7       C      0.245100000000     0.108000000000     0.287750000000     0          
H2       H      0.238600000000     0.106000000000     0.310600000000     0          
O4       O      0.309340000000     0.087800000000     0.391500000000     0          
C10      C      0.300900000000     0.079400000000     0.428400000000     0          
C1       C      0.203850000000     0.122240000000     0.203850000000     0          
C2       C      0.230160000000     0.116450000000     0.230160000000     0          
C4       C      0.350290000000     0.092620000000     0.350290000000     0          
C5       C      0.278800000000     0.105180000000     0.278800000000     0          
C8       C      0.304120000000     0.099590000000     0.304120000000     0          
C9       C      0.324950000000     0.095230000000     0.324950000000     0          
O1       O      0.375430000000     0.923770000000     0.464080000000     0          
C3       C      0.386290000000     0.971110000000     0.513520000000     0          
H1       H      0.384200000000     0.948200000000     0.519800000000     0          
C6       C      0.409670000000     0.092000000000     0.633420000000     0          
C7       C      0.392000000000     0.995100000000     0.537750000000     0          
H2       H      0.394000000000     0.988600000000     0.560600000000     0          
O4       O      0.412200000000     0.059340000000     0.641500000000     0          
C10      C      0.420600000000     0.050900000000     0.678400000000     0          
Zr1      Zr     0.375000000000     0.875000000000     0.437160000000     0          
C1       C      0.377760000000     0.953850000000     0.453850000000     0          
C2       C      0.383550000000     0.980160000000     0.480160000000     0          
C4       C      0.407380000000     0.100290000000     0.600290000000     0          
C5       C      0.394820000000     0.028800000000     0.528800000000     0          
C8       C      0.400410000000     0.054120000000     0.554120000000     0          
C9       C      0.404770000000     0.074950000000     0.574950000000     0          
O2       O      0.345520000000     0.845520000000     0.404480000000     0          
O3       O      0.342890000000     0.907110000000     0.407110000000     0          
O1       O      0.374570000000     0.326230000000     0.964080000000     0          
C3       C      0.363710000000     0.278890000000     0.013520000000     0          
H1       H      0.365800000000     0.301800000000     0.019800000000     0          
C6       C      0.340330000000     0.158000000000     0.133420000000     0          
C7       C      0.358000000000     0.254900000000     0.037750000000     0          
H2       H      0.356000000000     0.261400000000     0.060600000000     0          
O4       O      0.337800000000     0.190660000000     0.141500000000     0          
C10      C      0.329400000000     0.199100000000     0.178400000000     0          
Zr1      Zr     0.375000000000     0.375000000000     0.937160000000     0          
C1       C      0.372240000000     0.296150000000     0.953850000000     0          
C2       C      0.366450000000     0.269840000000     0.980160000000     0          
C4       C      0.342620000000     0.149710000000     0.100290000000     0          
C5       C      0.355180000000     0.221200000000     0.028800000000     0          
C8       C      0.349590000000     0.195880000000     0.054120000000     0          
C9       C      0.345230000000     0.175050000000     0.074950000000     0          
O2       O      0.404480000000     0.404480000000     0.904480000000     0          
O3       O      0.407110000000     0.342890000000     0.907110000000     0          
O1       O      0.785920000000     0.923770000000     0.874570000000     0          
C3       C      0.736480000000     0.971110000000     0.863710000000     0          
H1       H      0.730200000000     0.948200000000     0.865800000000     0          
C6       C      0.616580000000     0.092000000000     0.840330000000     0          
C7       C      0.712250000000     0.995100000000     0.858000000000     0          
H2       H      0.689400000000     0.988600000000     0.856000000000     0          
O4       O      0.608500000000     0.059340000000     0.837800000000     0          
C10      C      0.571600000000     0.050900000000     0.829400000000     0          
C1       C      0.796150000000     0.953850000000     0.872240000000     0          
C2       C      0.769840000000     0.980160000000     0.866450000000     0          
C4       C      0.649710000000     0.100290000000     0.842620000000     0          
C5       C      0.721200000000     0.028800000000     0.855180000000     0          
C8       C      0.695880000000     0.054120000000     0.849590000000     0          
C9       C      0.675050000000     0.074950000000     0.845230000000     0          
O1       O      0.076230000000     0.535920000000     0.624570000000     0          
C3       C      0.028890000000     0.486480000000     0.613710000000     0          
H1       H      0.051800000000     0.480200000000     0.615800000000     0          
C6       C      0.908000000000     0.366580000000     0.590330000000     0          
C7       C      0.004900000000     0.462250000000     0.608000000000     0          
H2       H      0.011400000000     0.439400000000     0.606000000000     0          
O4       O      0.940660000000     0.358500000000     0.587800000000     0          
C10      C      0.949100000000     0.321600000000     0.579400000000     0          
Zr1      Zr     0.125000000000     0.562840000000     0.625000000000     0          
C1       C      0.046150000000     0.546150000000     0.622240000000     0          
C2       C      0.019840000000     0.519840000000     0.616450000000     0          
C4       C      0.899710000000     0.399710000000     0.592620000000     0          
C5       C      0.971200000000     0.471200000000     0.605180000000     0          
C8       C      0.945880000000     0.445880000000     0.599590000000     0          
C9       C      0.925050000000     0.425050000000     0.595230000000     0          
O2       O      0.154480000000     0.595520000000     0.654480000000     0          
O3       O      0.092890000000     0.592890000000     0.657110000000     0          
O1       O      0.464080000000     0.826230000000     0.374570000000     0          
C3       C      0.513520000000     0.778890000000     0.363710000000     0          
H1       H      0.519800000000     0.801800000000     0.365800000000     0          
C6       C      0.633420000000     0.658000000000     0.340330000000     0          
C7       C      0.537750000000     0.754900000000     0.358000000000     0          
H2       H      0.560600000000     0.761400000000     0.356000000000     0          
O4       O      0.641500000000     0.690660000000     0.337800000000     0          
C10      C      0.678400000000     0.699100000000     0.329400000000     0          
Zr1      Zr     0.437160000000     0.875000000000     0.375000000000     0          
C1       C      0.453850000000     0.796150000000     0.372240000000     0          
C2       C      0.480160000000     0.769840000000     0.366450000000     0          
C4       C      0.600290000000     0.649710000000     0.342620000000     0          
C5       C      0.528800000000     0.721200000000     0.355180000000     0          
C8       C      0.554120000000     0.695880000000     0.349590000000     0          
C9       C      0.574950000000     0.675050000000     0.345230000000     0          
O2       O      0.404480000000     0.904480000000     0.404480000000     0          
O3       O      0.407110000000     0.842890000000     0.407110000000     0          
O1       O      0.173770000000     0.214080000000     0.124570000000     0          
C3       C      0.221110000000     0.263520000000     0.113710000000     0          
H1       H      0.198200000000     0.269800000000     0.115800000000     0          
C6       C      0.342000000000     0.383420000000     0.090330000000     0          
C7       C      0.245100000000     0.287750000000     0.108000000000     0          
H2       H      0.238600000000     0.310600000000     0.106000000000     0          
O4       O      0.309340000000     0.391500000000     0.087800000000     0          
C10      C      0.300900000000     0.428400000000     0.079400000000     0          
O1       O      0.785920000000     0.826230000000     0.875430000000     0          
C3       C      0.736480000000     0.778890000000     0.886290000000     0          
H1       H      0.730200000000     0.801800000000     0.884200000000     0          
C6       C      0.616580000000     0.658000000000     0.909670000000     0          
C7       C      0.712250000000     0.754900000000     0.892000000000     0          
H2       H      0.689400000000     0.761400000000     0.894000000000     0          
O4       O      0.608500000000     0.690660000000     0.912200000000     0          
C10      C      0.571600000000     0.699100000000     0.920600000000     0          
O1       O      0.173770000000     0.535920000000     0.625430000000     0          
C3       C      0.221110000000     0.486480000000     0.636290000000     0          
H1       H      0.198200000000     0.480200000000     0.634200000000     0          
C6       C      0.342000000000     0.366580000000     0.659670000000     0          
C7       C      0.245100000000     0.462250000000     0.642000000000     0          
H2       H      0.238600000000     0.439400000000     0.644000000000     0          
O4       O      0.309340000000     0.358500000000     0.662200000000     0          
C10      C      0.300900000000     0.321600000000     0.670600000000     0          
C1       C      0.203850000000     0.546150000000     0.627760000000     0          
C2       C      0.230160000000     0.519840000000     0.633550000000     0          
C4       C      0.350290000000     0.399710000000     0.657380000000     0          
C5       C      0.278800000000     0.471200000000     0.644820000000     0          
C8       C      0.304120000000     0.445880000000     0.650410000000     0          
C9       C      0.324950000000     0.425050000000     0.654770000000     0          
O1       O      0.464080000000     0.923770000000     0.375430000000     0          
C3       C      0.513520000000     0.971110000000     0.386290000000     0          
H1       H      0.519800000000     0.948200000000     0.384200000000     0          
C6       C      0.633420000000     0.092000000000     0.409670000000     0          
C7       C      0.537750000000     0.995100000000     0.392000000000     0          
H2       H      0.560600000000     0.988600000000     0.394000000000     0          
O4       O      0.641500000000     0.059340000000     0.412200000000     0          
C10      C      0.678400000000     0.050900000000     0.420600000000     0          
C1       C      0.453850000000     0.953850000000     0.377760000000     0          
C2       C      0.480160000000     0.980160000000     0.383550000000     0          
C4       C      0.600290000000     0.100290000000     0.407380000000     0          
C5       C      0.528800000000     0.028800000000     0.394820000000     0          
C8       C      0.554120000000     0.054120000000     0.400410000000     0          
C9       C      0.574950000000     0.074950000000     0.404770000000     0          
O2       O      0.404480000000     0.845520000000     0.345520000000     0          
O3       O      0.407110000000     0.907110000000     0.342890000000     0          
O1       O      0.076230000000     0.214080000000     0.125430000000     0          
C3       C      0.028890000000     0.263520000000     0.136290000000     0          
H1       H      0.051800000000     0.269800000000     0.134200000000     0          
C6       C      0.908000000000     0.383420000000     0.159670000000     0          
C7       C      0.004900000000     0.287750000000     0.142000000000     0          
H2       H      0.011400000000     0.310600000000     0.144000000000     0          
O4       O      0.940660000000     0.391500000000     0.162200000000     0          
C10      C      0.949100000000     0.428400000000     0.170600000000     0          
C1       C      0.046150000000     0.203850000000     0.127760000000     0          
C2       C      0.019840000000     0.230160000000     0.133550000000     0          
C4       C      0.899710000000     0.350290000000     0.157380000000     0          
C5       C      0.971200000000     0.278800000000     0.144820000000     0          
C8       C      0.945880000000     0.304120000000     0.150410000000     0          
C9       C      0.925050000000     0.324950000000     0.154770000000     0          
O1       O      0.874570000000     0.785920000000     0.923770000000     0          
C3       C      0.863710000000     0.736480000000     0.971110000000     0          
H1       H      0.865800000000     0.730200000000     0.948200000000     0          
C6       C      0.840330000000     0.616580000000     0.092000000000     0          
C7       C      0.858000000000     0.712250000000     0.995100000000     0          
H2       H      0.856000000000     0.689400000000     0.988600000000     0          
O4       O      0.837800000000     0.608500000000     0.059340000000     0          
C10      C      0.829400000000     0.571600000000     0.050900000000     0          
C1       C      0.872240000000     0.796150000000     0.953850000000     0          
C2       C      0.866450000000     0.769840000000     0.980160000000     0          
C4       C      0.842620000000     0.649710000000     0.100290000000     0          
C5       C      0.855180000000     0.721200000000     0.028800000000     0          
C8       C      0.849590000000     0.695880000000     0.054120000000     0          
C9       C      0.845230000000     0.675050000000     0.074950000000     0          
O1       O      0.214080000000     0.624570000000     0.673770000000     0          
C3       C      0.263520000000     0.613710000000     0.721110000000     0          
H1       H      0.269800000000     0.615800000000     0.698200000000     0          
C6       C      0.383420000000     0.590330000000     0.842000000000     0          
C7       C      0.287750000000     0.608000000000     0.745100000000     0          
H2       H      0.310600000000     0.606000000000     0.738600000000     0          
O4       O      0.391500000000     0.587800000000     0.809340000000     0          
C10      C      0.428400000000     0.579400000000     0.800900000000     0          
Zr1      Zr     0.187160000000     0.625000000000     0.625000000000     0          
C1       C      0.203850000000     0.622240000000     0.703850000000     0          
C2       C      0.230160000000     0.616450000000     0.730160000000     0          
C4       C      0.350290000000     0.592620000000     0.850290000000     0          
C5       C      0.278800000000     0.605180000000     0.778800000000     0          
C8       C      0.304120000000     0.599590000000     0.804120000000     0          
C9       C      0.324950000000     0.595230000000     0.824950000000     0          
O2       O      0.154480000000     0.654480000000     0.595520000000     0          
O3       O      0.157110000000     0.657110000000     0.657110000000     0          
O1       O      0.375430000000     0.964080000000     0.423770000000     0          
C3       C      0.386290000000     0.013520000000     0.471110000000     0          
H1       H      0.384200000000     0.019800000000     0.448200000000     0          
C6       C      0.409670000000     0.133420000000     0.592000000000     0          
C7       C      0.392000000000     0.037750000000     0.495100000000     0          
H2       H      0.394000000000     0.060600000000     0.488600000000     0          
O4       O      0.412200000000     0.141500000000     0.559340000000     0          
C10      C      0.420600000000     0.178400000000     0.550900000000     0          
Zr1      Zr     0.375000000000     0.937160000000     0.375000000000     0          
O1       O      0.035920000000     0.125430000000     0.173770000000     0          
C3       C      0.986480000000     0.136290000000     0.221110000000     0          
H1       H      0.980200000000     0.134200000000     0.198200000000     0          
C6       C      0.866580000000     0.159670000000     0.342000000000     0          
C7       C      0.962250000000     0.142000000000     0.245100000000     0          
H2       H      0.939400000000     0.144000000000     0.238600000000     0          
O4       O      0.858500000000     0.162200000000     0.309340000000     0          
C10      C      0.821600000000     0.170600000000     0.300900000000     0          
Zr1      Zr     0.062840000000     0.125000000000     0.125000000000     0          
O1       O      0.874570000000     0.964080000000     0.826230000000     0          
C3       C      0.863710000000     0.013520000000     0.778890000000     0          
H1       H      0.865800000000     0.019800000000     0.801800000000     0          
C6       C      0.840330000000     0.133420000000     0.658000000000     0          
C7       C      0.858000000000     0.037750000000     0.754900000000     0          
H2       H      0.856000000000     0.060600000000     0.761400000000     0          
O4       O      0.837800000000     0.141500000000     0.690660000000     0          
C10      C      0.829400000000     0.178400000000     0.699100000000     0          
Zr1      Zr     0.875000000000     0.937160000000     0.875000000000     0          
C1       C      0.872240000000     0.953850000000     0.796150000000     0          
C2       C      0.866450000000     0.980160000000     0.769840000000     0          
C4       C      0.842620000000     0.100290000000     0.649710000000     0          
C5       C      0.855180000000     0.028800000000     0.721200000000     0          
C8       C      0.849590000000     0.054120000000     0.695880000000     0          
C9       C      0.845230000000     0.074950000000     0.675050000000     0          
O1       O      0.035920000000     0.624570000000     0.576230000000     0          
C3       C      0.986480000000     0.613710000000     0.528890000000     0          
H1       H      0.980200000000     0.615800000000     0.551800000000     0          
C6       C      0.866580000000     0.590330000000     0.408000000000     0          
C7       C      0.962250000000     0.608000000000     0.504900000000     0          
H2       H      0.939400000000     0.606000000000     0.511400000000     0          
O4       O      0.858500000000     0.587800000000     0.440660000000     0          
C10      C      0.821600000000     0.579400000000     0.449100000000     0          
Zr1      Zr     0.062840000000     0.625000000000     0.625000000000     0          
C1       C      0.046150000000     0.622240000000     0.546150000000     0          
C2       C      0.019840000000     0.616450000000     0.519840000000     0          
C4       C      0.899710000000     0.592620000000     0.399710000000     0          
C5       C      0.971200000000     0.605180000000     0.471200000000     0          
C8       C      0.945880000000     0.599590000000     0.445880000000     0          
C9       C      0.925050000000     0.595230000000     0.425050000000     0          
O2       O      0.095520000000     0.654480000000     0.654480000000     0          
O3       O      0.092890000000     0.657110000000     0.592890000000     0          
O1       O      0.375430000000     0.785920000000     0.326230000000     0          
C3       C      0.386290000000     0.736480000000     0.278890000000     0          
H1       H      0.384200000000     0.730200000000     0.301800000000     0          
C6       C      0.409670000000     0.616580000000     0.158000000000     0          
C7       C      0.392000000000     0.712250000000     0.254900000000     0          
H2       H      0.394000000000     0.689400000000     0.261400000000     0          
O4       O      0.412200000000     0.608500000000     0.190660000000     0          
C10      C      0.420600000000     0.571600000000     0.199100000000     0          
Zr1      Zr     0.375000000000     0.812840000000     0.375000000000     0          
O1       O      0.214080000000     0.125430000000     0.076230000000     0          
C3       C      0.263520000000     0.136290000000     0.028890000000     0          
H1       H      0.269800000000     0.134200000000     0.051800000000     0          
C6       C      0.383420000000     0.159670000000     0.908000000000     0          
C7       C      0.287750000000     0.142000000000     0.004900000000     0          
H2       H      0.310600000000     0.144000000000     0.011400000000     0          
O4       O      0.391500000000     0.162200000000     0.940660000000     0          
C10      C      0.428400000000     0.170600000000     0.949100000000     0          
C1       C      0.203850000000     0.127760000000     0.046150000000     0          
C2       C      0.230160000000     0.133550000000     0.019840000000     0          
C4       C      0.350290000000     0.157380000000     0.899710000000     0          
C5       C      0.278800000000     0.144820000000     0.971200000000     0          
C8       C      0.304120000000     0.150410000000     0.945880000000     0          
C9       C      0.324950000000     0.154770000000     0.925050000000     0          
O1       O      0.923770000000     0.874570000000     0.785920000000     0          
C3       C      0.971110000000     0.863710000000     0.736480000000     0          
H1       H      0.948200000000     0.865800000000     0.730200000000     0          
C6       C      0.092000000000     0.840330000000     0.616580000000     0          
C7       C      0.995100000000     0.858000000000     0.712250000000     0          
H2       H      0.988600000000     0.856000000000     0.689400000000     0          
O4       O      0.059340000000     0.837800000000     0.608500000000     0          
C10      C      0.050900000000     0.829400000000     0.571600000000     0          
Zr1      Zr     0.875000000000     0.875000000000     0.812840000000     0          
O1       O      0.423770000000     0.375430000000     0.964080000000     0          
C3       C      0.471110000000     0.386290000000     0.013520000000     0          
H1       H      0.448200000000     0.384200000000     0.019800000000     0          
C6       C      0.592000000000     0.409670000000     0.133420000000     0          
C7       C      0.495100000000     0.392000000000     0.037750000000     0          
H2       H      0.488600000000     0.394000000000     0.060600000000     0          
O4       O      0.559340000000     0.412200000000     0.141500000000     0          
C10      C      0.550900000000     0.420600000000     0.178400000000     0          
C1       C      0.453850000000     0.377760000000     0.953850000000     0          
C2       C      0.480160000000     0.383550000000     0.980160000000     0          
C4       C      0.600290000000     0.407380000000     0.100290000000     0          
C5       C      0.528800000000     0.394820000000     0.028800000000     0          
C8       C      0.554120000000     0.400410000000     0.054120000000     0          
C9       C      0.574950000000     0.404770000000     0.074950000000     0          
O2       O      0.345520000000     0.345520000000     0.904480000000     0          
O1       O      0.624570000000     0.173770000000     0.714080000000     0          
C3       C      0.613710000000     0.221110000000     0.763520000000     0          
H1       H      0.615800000000     0.198200000000     0.769800000000     0          
C6       C      0.590330000000     0.342000000000     0.883420000000     0          
C7       C      0.608000000000     0.245100000000     0.787750000000     0          
H2       H      0.606000000000     0.238600000000     0.810600000000     0          
O4       O      0.587800000000     0.309340000000     0.891500000000     0          
C10      C      0.579400000000     0.300900000000     0.928400000000     0          
Zr1      Zr     0.625000000000     0.125000000000     0.687160000000     0          
O1       O      0.826230000000     0.374570000000     0.464080000000     0          
C3       C      0.778890000000     0.363710000000     0.513520000000     0          
H1       H      0.801800000000     0.365800000000     0.519800000000     0          
C6       C      0.658000000000     0.340330000000     0.633420000000     0          
C7       C      0.754900000000     0.358000000000     0.537750000000     0          
H2       H      0.761400000000     0.356000000000     0.560600000000     0          
O4       O      0.690660000000     0.337800000000     0.641500000000     0          
C10      C      0.699100000000     0.329400000000     0.678400000000     0          
Zr1      Zr     0.875000000000     0.375000000000     0.437160000000     0          
C1       C      0.796150000000     0.372240000000     0.453850000000     0          
C2       C      0.769840000000     0.366450000000     0.480160000000     0          
C4       C      0.649710000000     0.342620000000     0.600290000000     0          
C5       C      0.721200000000     0.355180000000     0.528800000000     0          
C8       C      0.695880000000     0.349590000000     0.554120000000     0          
C9       C      0.675050000000     0.345230000000     0.574950000000     0          
O1       O      0.125430000000     0.576230000000     0.714080000000     0          
C3       C      0.136290000000     0.528890000000     0.763520000000     0          
H1       H      0.134200000000     0.551800000000     0.769800000000     0          
C6       C      0.159670000000     0.408000000000     0.883420000000     0          
C7       C      0.142000000000     0.504900000000     0.787750000000     0          
H2       H      0.144000000000     0.511400000000     0.810600000000     0          
O4       O      0.162200000000     0.440660000000     0.891500000000     0          
C10      C      0.170600000000     0.449100000000     0.928400000000     0          
Zr1      Zr     0.125000000000     0.625000000000     0.687160000000     0          
C1       C      0.127760000000     0.546150000000     0.703850000000     0          
C2       C      0.133550000000     0.519840000000     0.730160000000     0          
C4       C      0.157380000000     0.399710000000     0.850290000000     0          
C5       C      0.144820000000     0.471200000000     0.778800000000     0          
C8       C      0.150410000000     0.445880000000     0.804120000000     0          
C9       C      0.154770000000     0.425050000000     0.824950000000     0          
O1       O      0.826230000000     0.875430000000     0.785920000000     0          
C3       C      0.778890000000     0.886290000000     0.736480000000     0          
H1       H      0.801800000000     0.884200000000     0.730200000000     0          
C6       C      0.658000000000     0.909670000000     0.616580000000     0          
C7       C      0.754900000000     0.892000000000     0.712250000000     0          
H2       H      0.761400000000     0.894000000000     0.689400000000     0          
O4       O      0.690660000000     0.912200000000     0.608500000000     0          
C10      C      0.699100000000     0.920600000000     0.571600000000     0          
C1       C      0.796150000000     0.877760000000     0.796150000000     0          
C2       C      0.769840000000     0.883550000000     0.769840000000     0          
C4       C      0.649710000000     0.907380000000     0.649710000000     0          
C5       C      0.721200000000     0.894820000000     0.721200000000     0          
C8       C      0.695880000000     0.900410000000     0.695880000000     0          
C9       C      0.675050000000     0.904770000000     0.675050000000     0          
O1       O      0.624570000000     0.076230000000     0.535920000000     0          
C3       C      0.613710000000     0.028890000000     0.486480000000     0          
H1       H      0.615800000000     0.051800000000     0.480200000000     0          
C6       C      0.590330000000     0.908000000000     0.366580000000     0          
C7       C      0.608000000000     0.004900000000     0.462250000000     0          
H2       H      0.606000000000     0.011400000000     0.439400000000     0          
O4       O      0.587800000000     0.940660000000     0.358500000000     0          
C10      C      0.579400000000     0.949100000000     0.321600000000     0          
Zr1      Zr     0.625000000000     0.125000000000     0.562840000000     0          
O1       O      0.625430000000     0.673770000000     0.035920000000     0          
C3       C      0.636290000000     0.721110000000     0.986480000000     0          
H1       H      0.634200000000     0.698200000000     0.980200000000     0          
C6       C      0.659670000000     0.842000000000     0.866580000000     0          
C7       C      0.642000000000     0.745100000000     0.962250000000     0          
H2       H      0.644000000000     0.738600000000     0.939400000000     0          
O4       O      0.662200000000     0.809340000000     0.858500000000     0          
C10      C      0.670600000000     0.800900000000     0.821600000000     0          
C1       C      0.627760000000     0.703850000000     0.046150000000     0          
C2       C      0.633550000000     0.730160000000     0.019840000000     0          
C4       C      0.657380000000     0.850290000000     0.899710000000     0          
C5       C      0.644820000000     0.778800000000     0.971200000000     0          
C8       C      0.650410000000     0.804120000000     0.945880000000     0          
C9       C      0.654770000000     0.824950000000     0.925050000000     0          
O2       O      0.595520000000     0.595520000000     0.095520000000     0          
O1       O      0.214080000000     0.576230000000     0.625430000000     0          
C3       C      0.263520000000     0.528890000000     0.636290000000     0          
H1       H      0.269800000000     0.551800000000     0.634200000000     0          
C6       C      0.383420000000     0.408000000000     0.659670000000     0          
C7       C      0.287750000000     0.504900000000     0.642000000000     0          
H2       H      0.310600000000     0.511400000000     0.644000000000     0          
O4       O      0.391500000000     0.440660000000     0.662200000000     0          
C10      C      0.428400000000     0.449100000000     0.670600000000     0          
O1       O      0.923770000000     0.964080000000     0.875430000000     0          
C3       C      0.971110000000     0.013520000000     0.886290000000     0          
H1       H      0.948200000000     0.019800000000     0.884200000000     0          
C6       C      0.092000000000     0.133420000000     0.909670000000     0          
C7       C      0.995100000000     0.037750000000     0.892000000000     0          
H2       H      0.988600000000     0.060600000000     0.894000000000     0          
O4       O      0.059340000000     0.141500000000     0.912200000000     0          
C10      C      0.050900000000     0.178400000000     0.920600000000     0          
C1       C      0.953850000000     0.953850000000     0.877760000000     0          
C2       C      0.980160000000     0.980160000000     0.883550000000     0          
C4       C      0.100290000000     0.100290000000     0.907380000000     0          
C5       C      0.028800000000     0.028800000000     0.894820000000     0          
C8       C      0.054120000000     0.054120000000     0.900410000000     0          
C9       C      0.074950000000     0.074950000000     0.904770000000     0          
O1       O      0.535920000000     0.673770000000     0.125430000000     0          
C3       C      0.486480000000     0.721110000000     0.136290000000     0          
H1       H      0.480200000000     0.698200000000     0.134200000000     0          
C6       C      0.366580000000     0.842000000000     0.159670000000     0          
C7       C      0.462250000000     0.745100000000     0.142000000000     0          
H2       H      0.439400000000     0.738600000000     0.144000000000     0          
O4       O      0.358500000000     0.809340000000     0.162200000000     0          
C10      C      0.321600000000     0.800900000000     0.170600000000     0          
Zr1      Zr     0.562840000000     0.625000000000     0.125000000000     0          
C1       C      0.546150000000     0.703850000000     0.127760000000     0          
C2       C      0.519840000000     0.730160000000     0.133550000000     0          
C4       C      0.399710000000     0.850290000000     0.157380000000     0          
C5       C      0.471200000000     0.778800000000     0.144820000000     0          
C8       C      0.445880000000     0.804120000000     0.150410000000     0          
C9       C      0.425050000000     0.824950000000     0.154770000000     0          
O1       O      0.826230000000     0.285920000000     0.375430000000     0          
C3       C      0.778890000000     0.236480000000     0.386290000000     0          
H1       H      0.801800000000     0.230200000000     0.384200000000     0          
C6       C      0.658000000000     0.116580000000     0.409670000000     0          
C7       C      0.754900000000     0.212250000000     0.392000000000     0          
H2       H      0.761400000000     0.189400000000     0.394000000000     0          
O4       O      0.690660000000     0.108500000000     0.412200000000     0          
C10      C      0.699100000000     0.071600000000     0.420600000000     0          
Zr1      Zr     0.875000000000     0.312840000000     0.375000000000     0          
C1       C      0.796150000000     0.296150000000     0.377760000000     0          
C2       C      0.769840000000     0.269840000000     0.383550000000     0          
C4       C      0.649710000000     0.149710000000     0.407380000000     0          
C5       C      0.721200000000     0.221200000000     0.394820000000     0          
C8       C      0.695880000000     0.195880000000     0.400410000000     0          
C9       C      0.675050000000     0.175050000000     0.404770000000     0          
O1       O      0.214080000000     0.673770000000     0.624570000000     0          
C3       C      0.263520000000     0.721110000000     0.613710000000     0          
H1       H      0.269800000000     0.698200000000     0.615800000000     0          
C6       C      0.383420000000     0.842000000000     0.590330000000     0          
C7       C      0.287750000000     0.745100000000     0.608000000000     0          
H2       H      0.310600000000     0.738600000000     0.606000000000     0          
O4       O      0.391500000000     0.809340000000     0.587800000000     0          
C10      C      0.428400000000     0.800900000000     0.579400000000     0          
C1       C      0.203850000000     0.703850000000     0.622240000000     0          
C2       C      0.230160000000     0.730160000000     0.616450000000     0          
C4       C      0.350290000000     0.850290000000     0.592620000000     0          
C5       C      0.278800000000     0.778800000000     0.605180000000     0          
C8       C      0.304120000000     0.804120000000     0.599590000000     0          
C9       C      0.324950000000     0.824950000000     0.595230000000     0          
O1       O      0.826230000000     0.964080000000     0.874570000000     0          
C3       C      0.778890000000     0.013520000000     0.863710000000     0          
H1       H      0.801800000000     0.019800000000     0.865800000000     0          
C6       C      0.658000000000     0.133420000000     0.840330000000     0          
C7       C      0.754900000000     0.037750000000     0.858000000000     0          
H2       H      0.761400000000     0.060600000000     0.856000000000     0          
O4       O      0.690660000000     0.141500000000     0.837800000000     0          
C10      C      0.699100000000     0.178400000000     0.829400000000     0          
O1       O      0.535920000000     0.576230000000     0.124570000000     0          
C3       C      0.486480000000     0.528890000000     0.113710000000     0          
H1       H      0.480200000000     0.551800000000     0.115800000000     0          
C6       C      0.366580000000     0.408000000000     0.090330000000     0          
C7       C      0.462250000000     0.504900000000     0.108000000000     0          
H2       H      0.439400000000     0.511400000000     0.106000000000     0          
O4       O      0.358500000000     0.440660000000     0.087800000000     0          
C10      C      0.321600000000     0.449100000000     0.079400000000     0          
C1       C      0.546150000000     0.546150000000     0.122240000000     0          
C2       C      0.519840000000     0.519840000000     0.116450000000     0          
C4       C      0.399710000000     0.399710000000     0.092620000000     0          
C5       C      0.471200000000     0.471200000000     0.105180000000     0          
C8       C      0.445880000000     0.445880000000     0.099590000000     0          
C9       C      0.425050000000     0.425050000000     0.095230000000     0          
O2       O      0.595520000000     0.654480000000     0.154480000000     0          
O3       O      0.592890000000     0.592890000000     0.157110000000     0          
O1       O      0.923770000000     0.285920000000     0.374570000000     0          
C3       C      0.971110000000     0.236480000000     0.363710000000     0          
H1       H      0.948200000000     0.230200000000     0.365800000000     0          
C6       C      0.092000000000     0.116580000000     0.340330000000     0          
C7       C      0.995100000000     0.212250000000     0.358000000000     0          
H2       H      0.988600000000     0.189400000000     0.356000000000     0          
O4       O      0.059340000000     0.108500000000     0.337800000000     0          
C10      C      0.050900000000     0.071600000000     0.329400000000     0          
C1       C      0.953850000000     0.296150000000     0.372240000000     0          
C2       C      0.980160000000     0.269840000000     0.366450000000     0          
C4       C      0.100290000000     0.149710000000     0.342620000000     0          
C5       C      0.028800000000     0.221200000000     0.355180000000     0          
C8       C      0.054120000000     0.195880000000     0.349590000000     0          
C9       C      0.074950000000     0.175050000000     0.345230000000     0          
O1       O      0.125430000000     0.714080000000     0.576230000000     0          
C3       C      0.136290000000     0.763520000000     0.528890000000     0          
H1       H      0.134200000000     0.769800000000     0.551800000000     0          
C6       C      0.159670000000     0.883420000000     0.408000000000     0          
C7       C      0.142000000000     0.787750000000     0.504900000000     0          
H2       H      0.144000000000     0.810600000000     0.511400000000     0          
O4       O      0.162200000000     0.891500000000     0.440660000000     0          
C10      C      0.170600000000     0.928400000000     0.449100000000     0          
Zr1      Zr     0.125000000000     0.687160000000     0.625000000000     0          
C1       C      0.127760000000     0.703850000000     0.546150000000     0          
C2       C      0.133550000000     0.730160000000     0.519840000000     0          
C4       C      0.157380000000     0.850290000000     0.399710000000     0          
C5       C      0.144820000000     0.778800000000     0.471200000000     0          
C8       C      0.150410000000     0.804120000000     0.445880000000     0          
C9       C      0.154770000000     0.824950000000     0.425050000000     0          
O1       O      0.785920000000     0.875430000000     0.826230000000     0          
C3       C      0.736480000000     0.886290000000     0.778890000000     0          
H1       H      0.730200000000     0.884200000000     0.801800000000     0          
C6       C      0.616580000000     0.909670000000     0.658000000000     0          
C7       C      0.712250000000     0.892000000000     0.754900000000     0          
H2       H      0.689400000000     0.894000000000     0.761400000000     0          
O4       O      0.608500000000     0.912200000000     0.690660000000     0          
C10      C      0.571600000000     0.920600000000     0.699100000000     0          
O1       O      0.624570000000     0.535920000000     0.076230000000     0          
C3       C      0.613710000000     0.486480000000     0.028890000000     0          
H1       H      0.615800000000     0.480200000000     0.051800000000     0          
C6       C      0.590330000000     0.366580000000     0.908000000000     0          
C7       C      0.608000000000     0.462250000000     0.004900000000     0          
H2       H      0.606000000000     0.439400000000     0.011400000000     0          
O4       O      0.587800000000     0.358500000000     0.940660000000     0          
C10      C      0.579400000000     0.321600000000     0.949100000000     0          
Zr1      Zr     0.625000000000     0.562840000000     0.125000000000     0          
C1       C      0.622240000000     0.546150000000     0.046150000000     0          
C2       C      0.616450000000     0.519840000000     0.019840000000     0          
C4       C      0.592620000000     0.399710000000     0.899710000000     0          
C5       C      0.605180000000     0.471200000000     0.971200000000     0          
C8       C      0.599590000000     0.445880000000     0.945880000000     0          
C9       C      0.595230000000     0.425050000000     0.925050000000     0          
O2       O      0.654480000000     0.595520000000     0.154480000000     0          
O3       O      0.657110000000     0.592890000000     0.092890000000     0          
O1       O      0.964080000000     0.374570000000     0.326230000000     0          
C3       C      0.013520000000     0.363710000000     0.278890000000     0          
H1       H      0.019800000000     0.365800000000     0.301800000000     0          
C6       C      0.133420000000     0.340330000000     0.158000000000     0          
C7       C      0.037750000000     0.358000000000     0.254900000000     0          
H2       H      0.060600000000     0.356000000000     0.261400000000     0          
O4       O      0.141500000000     0.337800000000     0.190660000000     0          
C10      C      0.178400000000     0.329400000000     0.199100000000     0          
C1       C      0.953850000000     0.372240000000     0.296150000000     0          
C2       C      0.980160000000     0.366450000000     0.269840000000     0          
C4       C      0.100290000000     0.342620000000     0.149710000000     0          
C5       C      0.028800000000     0.355180000000     0.221200000000     0          
C8       C      0.054120000000     0.349590000000     0.195880000000     0          
C9       C      0.074950000000     0.345230000000     0.175050000000     0          
O1       O      0.125430000000     0.535920000000     0.673770000000     0          
C3       C      0.136290000000     0.486480000000     0.721110000000     0          
H1       H      0.134200000000     0.480200000000     0.698200000000     0          
C6       C      0.159670000000     0.366580000000     0.842000000000     0          
C7       C      0.142000000000     0.462250000000     0.745100000000     0          
H2       H      0.144000000000     0.439400000000     0.738600000000     0          
O4       O      0.162200000000     0.358500000000     0.809340000000     0          
C10      C      0.170600000000     0.321600000000     0.800900000000     0          
O1       O      0.964080000000     0.875430000000     0.923770000000     0          
C3       C      0.013520000000     0.886290000000     0.971110000000     0          
H1       H      0.019800000000     0.884200000000     0.948200000000     0          
C6       C      0.133420000000     0.909670000000     0.092000000000     0          
C7       C      0.037750000000     0.892000000000     0.995100000000     0          
H2       H      0.060600000000     0.894000000000     0.988600000000     0          
O4       O      0.141500000000     0.912200000000     0.059340000000     0          
C10      C      0.178400000000     0.920600000000     0.050900000000     0          
C1       C      0.953850000000     0.877760000000     0.953850000000     0          
C2       C      0.980160000000     0.883550000000     0.980160000000     0          
C4       C      0.100290000000     0.907380000000     0.100290000000     0          
C5       C      0.028800000000     0.894820000000     0.028800000000     0          
C8       C      0.054120000000     0.900410000000     0.054120000000     0          
C9       C      0.074950000000     0.904770000000     0.074950000000     0          
O1       O      0.624570000000     0.714080000000     0.173770000000     0          
C3       C      0.613710000000     0.763520000000     0.221110000000     0          
H1       H      0.615800000000     0.769800000000     0.198200000000     0          
C6       C      0.590330000000     0.883420000000     0.342000000000     0          
C7       C      0.608000000000     0.787750000000     0.245100000000     0          
H2       H      0.606000000000     0.810600000000     0.238600000000     0          
O4       O      0.587800000000     0.891500000000     0.309340000000     0          
C10      C      0.579400000000     0.928400000000     0.300900000000     0          
Zr1      Zr     0.625000000000     0.687160000000     0.125000000000     0          
C1       C      0.622240000000     0.703850000000     0.203850000000     0          
C2       C      0.616450000000     0.730160000000     0.230160000000     0          
C4       C      0.592620000000     0.850290000000     0.350290000000     0          
C5       C      0.605180000000     0.778800000000     0.278800000000     0          
C8       C      0.599590000000     0.804120000000     0.304120000000     0          
C9       C      0.595230000000     0.824950000000     0.324950000000     0          
O3       O      0.657110000000     0.657110000000     0.157110000000     0          
O1       O      0.785920000000     0.374570000000     0.423770000000     0          
C3       C      0.736480000000     0.363710000000     0.471110000000     0          
H1       H      0.730200000000     0.365800000000     0.448200000000     0          
C6       C      0.616580000000     0.340330000000     0.592000000000     0          
C7       C      0.712250000000     0.358000000000     0.495100000000     0          
H2       H      0.689400000000     0.356000000000     0.488600000000     0          
O4       O      0.608500000000     0.337800000000     0.559340000000     0          
C10      C      0.571600000000     0.329400000000     0.550900000000     0          
O1       O      0.076230000000     0.625430000000     0.714080000000     0          
C3       C      0.028890000000     0.636290000000     0.763520000000     0          
H1       H      0.051800000000     0.634200000000     0.769800000000     0          
C6       C      0.908000000000     0.659670000000     0.883420000000     0          
C7       C      0.004900000000     0.642000000000     0.787750000000     0          
H2       H      0.011400000000     0.644000000000     0.810600000000     0          
O4       O      0.940660000000     0.662200000000     0.891500000000     0          
C10      C      0.949100000000     0.670600000000     0.928400000000     0          
C1       C      0.046150000000     0.627760000000     0.703850000000     0          
C2       C      0.019840000000     0.633550000000     0.730160000000     0          
C4       C      0.899710000000     0.657380000000     0.850290000000     0          
C5       C      0.971200000000     0.644820000000     0.778800000000     0          
C8       C      0.945880000000     0.650410000000     0.804120000000     0          
C9       C      0.925050000000     0.654770000000     0.824950000000     0          
O1       O      0.576230000000     0.124570000000     0.535920000000     0          
C3       C      0.528890000000     0.113710000000     0.486480000000     0          
H1       H      0.551800000000     0.115800000000     0.480200000000     0          
C6       C      0.408000000000     0.090330000000     0.366580000000     0          
C7       C      0.504900000000     0.108000000000     0.462250000000     0          
H2       H      0.511400000000     0.106000000000     0.439400000000     0          
O4       O      0.440660000000     0.087800000000     0.358500000000     0          
C10      C      0.449100000000     0.079400000000     0.321600000000     0          
C1       C      0.546150000000     0.122240000000     0.546150000000     0          
C2       C      0.519840000000     0.116450000000     0.519840000000     0          
C4       C      0.399710000000     0.092620000000     0.399710000000     0          
C5       C      0.471200000000     0.105180000000     0.471200000000     0          
C8       C      0.445880000000     0.099590000000     0.445880000000     0          
C9       C      0.425050000000     0.095230000000     0.425050000000     0          
O1       O      0.375430000000     0.326230000000     0.785920000000     0          
C3       C      0.386290000000     0.278890000000     0.736480000000     0          
H1       H      0.384200000000     0.301800000000     0.730200000000     0          
C6       C      0.409670000000     0.158000000000     0.616580000000     0          
C7       C      0.392000000000     0.254900000000     0.712250000000     0          
H2       H      0.394000000000     0.261400000000     0.689400000000     0          
O4       O      0.412200000000     0.190660000000     0.608500000000     0          
C10      C      0.420600000000     0.199100000000     0.571600000000     0          
Zr1      Zr     0.375000000000     0.375000000000     0.812840000000     0          
C1       C      0.377760000000     0.296150000000     0.796150000000     0          
C2       C      0.383550000000     0.269840000000     0.769840000000     0          
C4       C      0.407380000000     0.149710000000     0.649710000000     0          
C5       C      0.394820000000     0.221200000000     0.721200000000     0          
C8       C      0.400410000000     0.195880000000     0.695880000000     0          
C9       C      0.404770000000     0.175050000000     0.675050000000     0          
O2       O      0.345520000000     0.404480000000     0.845520000000     0          
O3       O      0.342890000000     0.342890000000     0.842890000000     0          
O1       O      0.173770000000     0.125430000000     0.035920000000     0          
C3       C      0.221110000000     0.136290000000     0.986480000000     0          
H1       H      0.198200000000     0.134200000000     0.980200000000     0          
C6       C      0.342000000000     0.159670000000     0.866580000000     0          
C7       C      0.245100000000     0.142000000000     0.962250000000     0          
H2       H      0.238600000000     0.144000000000     0.939400000000     0          
O4       O      0.309340000000     0.162200000000     0.858500000000     0          
C10      C      0.300900000000     0.170600000000     0.821600000000     0          
Zr1      Zr     0.125000000000     0.125000000000     0.062840000000     0          
O1       O      0.874570000000     0.923770000000     0.785920000000     0          
C3       C      0.863710000000     0.971110000000     0.736480000000     0          
H1       H      0.865800000000     0.948200000000     0.730200000000     0          
C6       C      0.840330000000     0.092000000000     0.616580000000     0          
C7       C      0.858000000000     0.995100000000     0.712250000000     0          
H2       H      0.856000000000     0.988600000000     0.689400000000     0          
O4       O      0.837800000000     0.059340000000     0.608500000000     0          
C10      C      0.829400000000     0.050900000000     0.571600000000     0          
O1       O      0.173770000000     0.624570000000     0.714080000000     0          
C3       C      0.221110000000     0.613710000000     0.763520000000     0          
H1       H      0.198200000000     0.615800000000     0.769800000000     0          
C6       C      0.342000000000     0.590330000000     0.883420000000     0          
C7       C      0.245100000000     0.608000000000     0.787750000000     0          
H2       H      0.238600000000     0.606000000000     0.810600000000     0          
O4       O      0.309340000000     0.587800000000     0.891500000000     0          
C10      C      0.300900000000     0.579400000000     0.928400000000     0          
O1       O      0.375430000000     0.423770000000     0.964080000000     0          
C3       C      0.386290000000     0.471110000000     0.013520000000     0          
H1       H      0.384200000000     0.448200000000     0.019800000000     0          
C6       C      0.409670000000     0.592000000000     0.133420000000     0          
C7       C      0.392000000000     0.495100000000     0.037750000000     0          
H2       H      0.394000000000     0.488600000000     0.060600000000     0          
O4       O      0.412200000000     0.559340000000     0.141500000000     0          
C10      C      0.420600000000     0.550900000000     0.178400000000     0          
C1       C      0.377760000000     0.453850000000     0.953850000000     0          
C2       C      0.383550000000     0.480160000000     0.980160000000     0          
C4       C      0.407380000000     0.600290000000     0.100290000000     0          
C5       C      0.394820000000     0.528800000000     0.028800000000     0          
C8       C      0.400410000000     0.554120000000     0.054120000000     0          
C9       C      0.404770000000     0.574950000000     0.074950000000     0          
O3       O      0.342890000000     0.407110000000     0.907110000000     0          
O1       O      0.374570000000     0.826230000000     0.464080000000     0          
C3       C      0.363710000000     0.778890000000     0.513520000000     0          
H1       H      0.365800000000     0.801800000000     0.519800000000     0          
C6       C      0.340330000000     0.658000000000     0.633420000000     0          
C7       C      0.358000000000     0.754900000000     0.537750000000     0          
H2       H      0.356000000000     0.761400000000     0.560600000000     0          
O4       O      0.337800000000     0.690660000000     0.641500000000     0          
C10      C      0.329400000000     0.699100000000     0.678400000000     0          
C1       C      0.372240000000     0.796150000000     0.453850000000     0          
C2       C      0.366450000000     0.769840000000     0.480160000000     0          
C4       C      0.342620000000     0.649710000000     0.600290000000     0          
C5       C      0.355180000000     0.721200000000     0.528800000000     0          
C8       C      0.349590000000     0.695880000000     0.554120000000     0          
C9       C      0.345230000000     0.675050000000     0.574950000000     0          
O1       O      0.785920000000     0.423770000000     0.374570000000     0          
C3       C      0.736480000000     0.471110000000     0.363710000000     0          
H1       H      0.730200000000     0.448200000000     0.365800000000     0          
C6       C      0.616580000000     0.592000000000     0.340330000000     0          
C7       C      0.712250000000     0.495100000000     0.358000000000     0          
H2       H      0.689400000000     0.488600000000     0.356000000000     0          
O4       O      0.608500000000     0.559340000000     0.337800000000     0          
C10      C      0.571600000000     0.550900000000     0.329400000000     0          
O1       O      0.076230000000     0.035920000000     0.124570000000     0          
C3       C      0.028890000000     0.986480000000     0.113710000000     0          
H1       H      0.051800000000     0.980200000000     0.115800000000     0          
C6       C      0.908000000000     0.866580000000     0.090330000000     0          
C7       C      0.004900000000     0.962250000000     0.108000000000     0          
H2       H      0.011400000000     0.939400000000     0.106000000000     0          
O4       O      0.940660000000     0.858500000000     0.087800000000     0          
C10      C      0.949100000000     0.821600000000     0.079400000000     0          
C1       C      0.046150000000     0.046150000000     0.122240000000     0          
C2       C      0.019840000000     0.019840000000     0.116450000000     0          
C4       C      0.899710000000     0.899710000000     0.092620000000     0          
C5       C      0.971200000000     0.971200000000     0.105180000000     0          
C8       C      0.945880000000     0.945880000000     0.099590000000     0          
C9       C      0.925050000000     0.925050000000     0.095230000000     0          
O1       O      0.464080000000     0.326230000000     0.874570000000     0          
C3       C      0.513520000000     0.278890000000     0.863710000000     0          
H1       H      0.519800000000     0.301800000000     0.865800000000     0          
C6       C      0.633420000000     0.158000000000     0.840330000000     0          
C7       C      0.537750000000     0.254900000000     0.858000000000     0          
H2       H      0.560600000000     0.261400000000     0.856000000000     0          
O4       O      0.641500000000     0.190660000000     0.837800000000     0          
C10      C      0.678400000000     0.199100000000     0.829400000000     0          
Zr1      Zr     0.437160000000     0.375000000000     0.875000000000     0          
C1       C      0.453850000000     0.296150000000     0.872240000000     0          
C2       C      0.480160000000     0.269840000000     0.866450000000     0          
C4       C      0.600290000000     0.149710000000     0.842620000000     0          
C5       C      0.528800000000     0.221200000000     0.855180000000     0          
C8       C      0.554120000000     0.195880000000     0.849590000000     0          
C9       C      0.574950000000     0.175050000000     0.845230000000     0          
O1       O      0.173770000000     0.714080000000     0.624570000000     0          
C3       C      0.221110000000     0.763520000000     0.613710000000     0          
H1       H      0.198200000000     0.769800000000     0.615800000000     0          
C6       C      0.342000000000     0.883420000000     0.590330000000     0          
C7       C      0.245100000000     0.787750000000     0.608000000000     0          
H2       H      0.238600000000     0.810600000000     0.606000000000     0          
O4       O      0.309340000000     0.891500000000     0.587800000000     0          
C10      C      0.300900000000     0.928400000000     0.579400000000     0          
O1       O      0.785920000000     0.326230000000     0.375430000000     0          
C3       C      0.736480000000     0.278890000000     0.386290000000     0          
H1       H      0.730200000000     0.301800000000     0.384200000000     0          
C6       C      0.616580000000     0.158000000000     0.409670000000     0          
C7       C      0.712250000000     0.254900000000     0.392000000000     0          
H2       H      0.689400000000     0.261400000000     0.394000000000     0          
O4       O      0.608500000000     0.190660000000     0.412200000000     0          
C10      C      0.571600000000     0.199100000000     0.420600000000     0          
O1       O      0.173770000000     0.035920000000     0.125430000000     0          
C3       C      0.221110000000     0.986480000000     0.136290000000     0          
H1       H      0.198200000000     0.980200000000     0.134200000000     0          
C6       C      0.342000000000     0.866580000000     0.159670000000     0          
C7       C      0.245100000000     0.962250000000     0.142000000000     0          
H2       H      0.238600000000     0.939400000000     0.144000000000     0          
O4       O      0.309340000000     0.858500000000     0.162200000000     0          
C10      C      0.300900000000     0.821600000000     0.170600000000     0          
O1       O      0.464080000000     0.423770000000     0.875430000000     0          
C3       C      0.513520000000     0.471110000000     0.886290000000     0          
H1       H      0.519800000000     0.448200000000     0.884200000000     0          
C6       C      0.633420000000     0.592000000000     0.909670000000     0          
C7       C      0.537750000000     0.495100000000     0.892000000000     0          
H2       H      0.560600000000     0.488600000000     0.894000000000     0          
O4       O      0.641500000000     0.559340000000     0.912200000000     0          
C10      C      0.678400000000     0.550900000000     0.920600000000     0          
C1       C      0.453850000000     0.453850000000     0.877760000000     0          
C2       C      0.480160000000     0.480160000000     0.883550000000     0          
C4       C      0.600290000000     0.600290000000     0.907380000000     0          
C5       C      0.528800000000     0.528800000000     0.894820000000     0          
C8       C      0.554120000000     0.554120000000     0.900410000000     0          
C9       C      0.574950000000     0.574950000000     0.904770000000     0          
O2       O      0.404480000000     0.345520000000     0.845520000000     0          
O3       O      0.407110000000     0.407110000000     0.842890000000     0          
O1       O      0.076230000000     0.714080000000     0.625430000000     0          
C3       C      0.028890000000     0.763520000000     0.636290000000     0          
H1       H      0.051800000000     0.769800000000     0.634200000000     0          
C6       C      0.908000000000     0.883420000000     0.659670000000     0          
C7       C      0.004900000000     0.787750000000     0.642000000000     0          
H2       H      0.011400000000     0.810600000000     0.644000000000     0          
O4       O      0.940660000000     0.891500000000     0.662200000000     0          
C10      C      0.949100000000     0.928400000000     0.670600000000     0          
C1       C      0.046150000000     0.703850000000     0.627760000000     0          
C2       C      0.019840000000     0.730160000000     0.633550000000     0          
C4       C      0.899710000000     0.850290000000     0.657380000000     0          
C5       C      0.971200000000     0.778800000000     0.644820000000     0          
C8       C      0.945880000000     0.804120000000     0.650410000000     0          
C9       C      0.925050000000     0.824950000000     0.654770000000     0          
O1       O      0.874570000000     0.285920000000     0.423770000000     0          
C3       C      0.863710000000     0.236480000000     0.471110000000     0          
H1       H      0.865800000000     0.230200000000     0.448200000000     0          
C6       C      0.840330000000     0.116580000000     0.592000000000     0          
C7       C      0.858000000000     0.212250000000     0.495100000000     0          
H2       H      0.856000000000     0.189400000000     0.488600000000     0          
O4       O      0.837800000000     0.108500000000     0.559340000000     0          
C10      C      0.829400000000     0.071600000000     0.550900000000     0          
C1       C      0.872240000000     0.296150000000     0.453850000000     0          
C2       C      0.866450000000     0.269840000000     0.480160000000     0          
C4       C      0.842620000000     0.149710000000     0.600290000000     0          
C5       C      0.855180000000     0.221200000000     0.528800000000     0          
C8       C      0.849590000000     0.195880000000     0.554120000000     0          
C9       C      0.845230000000     0.175050000000     0.574950000000     0          
O1       O      0.214080000000     0.124570000000     0.173770000000     0          
C3       C      0.263520000000     0.113710000000     0.221110000000     0          
H1       H      0.269800000000     0.115800000000     0.198200000000     0          
C6       C      0.383420000000     0.090330000000     0.342000000000     0          
C7       C      0.287750000000     0.108000000000     0.245100000000     0          
H2       H      0.310600000000     0.106000000000     0.238600000000     0          
O4       O      0.391500000000     0.087800000000     0.309340000000     0          
C10      C      0.428400000000     0.079400000000     0.300900000000     0          
O1       O      0.375430000000     0.464080000000     0.923770000000     0          
C3       C      0.386290000000     0.513520000000     0.971110000000     0          
H1       H      0.384200000000     0.519800000000     0.948200000000     0          
C6       C      0.409670000000     0.633420000000     0.092000000000     0          
C7       C      0.392000000000     0.537750000000     0.995100000000     0          
H2       H      0.394000000000     0.560600000000     0.988600000000     0          
O4       O      0.412200000000     0.641500000000     0.059340000000     0          
C10      C      0.420600000000     0.678400000000     0.050900000000     0          
Zr1      Zr     0.375000000000     0.437160000000     0.875000000000     0          
O1       O      0.035920000000     0.625430000000     0.673770000000     0          
C3       C      0.986480000000     0.636290000000     0.721110000000     0          
H1       H      0.980200000000     0.634200000000     0.698200000000     0          
C6       C      0.866580000000     0.659670000000     0.842000000000     0          
C7       C      0.962250000000     0.642000000000     0.745100000000     0          
H2       H      0.939400000000     0.644000000000     0.738600000000     0          
O4       O      0.858500000000     0.662200000000     0.809340000000     0          
C10      C      0.821600000000     0.670600000000     0.800900000000     0          
O1       O      0.874570000000     0.464080000000     0.326230000000     0          
C3       C      0.863710000000     0.513520000000     0.278890000000     0          
H1       H      0.865800000000     0.519800000000     0.301800000000     0          
C6       C      0.840330000000     0.633420000000     0.158000000000     0          
C7       C      0.858000000000     0.537750000000     0.254900000000     0          
H2       H      0.856000000000     0.560600000000     0.261400000000     0          
O4       O      0.837800000000     0.641500000000     0.190660000000     0          
C10      C      0.829400000000     0.678400000000     0.199100000000     0          
O1       O      0.035920000000     0.124570000000     0.076230000000     0          
C3       C      0.986480000000     0.113710000000     0.028890000000     0          
H1       H      0.980200000000     0.115800000000     0.051800000000     0          
C6       C      0.866580000000     0.090330000000     0.908000000000     0          
C7       C      0.962250000000     0.108000000000     0.004900000000     0          
H2       H      0.939400000000     0.106000000000     0.011400000000     0          
O4       O      0.858500000000     0.087800000000     0.940660000000     0          
C10      C      0.821600000000     0.079400000000     0.949100000000     0          
C1       C      0.046150000000     0.122240000000     0.046150000000     0          
C2       C      0.019840000000     0.116450000000     0.019840000000     0          
C4       C      0.899710000000     0.092620000000     0.899710000000     0          
C5       C      0.971200000000     0.105180000000     0.971200000000     0          
C8       C      0.945880000000     0.099590000000     0.945880000000     0          
C9       C      0.925050000000     0.095230000000     0.925050000000     0          
O1       O      0.375430000000     0.285920000000     0.826230000000     0          
C3       C      0.386290000000     0.236480000000     0.778890000000     0          
H1       H      0.384200000000     0.230200000000     0.801800000000     0          
C6       C      0.409670000000     0.116580000000     0.658000000000     0          
C7       C      0.392000000000     0.212250000000     0.754900000000     0          
H2       H      0.394000000000     0.189400000000     0.761400000000     0          
O4       O      0.412200000000     0.108500000000     0.690660000000     0          
C10      C      0.420600000000     0.071600000000     0.699100000000     0          
Zr1      Zr     0.375000000000     0.312840000000     0.875000000000     0          
O1       O      0.214080000000     0.625430000000     0.576230000000     0          
C3       C      0.263520000000     0.636290000000     0.528890000000     0          
H1       H      0.269800000000     0.634200000000     0.551800000000     0          
C6       C      0.383420000000     0.659670000000     0.408000000000     0          
C7       C      0.287750000000     0.642000000000     0.504900000000     0          
H2       H      0.310600000000     0.644000000000     0.511400000000     0          
O4       O      0.391500000000     0.662200000000     0.440660000000     0          
C10      C      0.428400000000     0.670600000000     0.449100000000     0          
O1       O      0.923770000000     0.374570000000     0.285920000000     0          
C3       C      0.971110000000     0.363710000000     0.236480000000     0          
H1       H      0.948200000000     0.365800000000     0.230200000000     0          
C6       C      0.092000000000     0.340330000000     0.116580000000     0          
C7       C      0.995100000000     0.358000000000     0.212250000000     0          
H2       H      0.988600000000     0.356000000000     0.189400000000     0          
O4       O      0.059340000000     0.337800000000     0.108500000000     0          
C10      C      0.050900000000     0.329400000000     0.071600000000     0          
O1       O      0.423770000000     0.875430000000     0.464080000000     0          
C3       C      0.471110000000     0.886290000000     0.513520000000     0          
H1       H      0.448200000000     0.884200000000     0.519800000000     0          
C6       C      0.592000000000     0.909670000000     0.633420000000     0          
C7       C      0.495100000000     0.892000000000     0.537750000000     0          
H2       H      0.488600000000     0.894000000000     0.560600000000     0          
O4       O      0.559340000000     0.912200000000     0.641500000000     0          
C10      C      0.550900000000     0.920600000000     0.678400000000     0          
C1       C      0.453850000000     0.877760000000     0.453850000000     0          
C2       C      0.480160000000     0.883550000000     0.480160000000     0          
C4       C      0.600290000000     0.907380000000     0.600290000000     0          
C5       C      0.528800000000     0.894820000000     0.528800000000     0          
C8       C      0.554120000000     0.900410000000     0.554120000000     0          
C9       C      0.574950000000     0.904770000000     0.574950000000     0          
O1       O      0.624570000000     0.673770000000     0.214080000000     0          
C3       C      0.613710000000     0.721110000000     0.263520000000     0          
H1       H      0.615800000000     0.698200000000     0.269800000000     0          
C6       C      0.590330000000     0.842000000000     0.383420000000     0          
C7       C      0.608000000000     0.745100000000     0.287750000000     0          
H2       H      0.606000000000     0.738600000000     0.310600000000     0          
O4       O      0.587800000000     0.809340000000     0.391500000000     0          
C10      C      0.579400000000     0.800900000000     0.428400000000     0          
Zr1      Zr     0.625000000000     0.625000000000     0.187160000000     0          
O1       O      0.826230000000     0.874570000000     0.964080000000     0          
C3       C      0.778890000000     0.863710000000     0.013520000000     0          
H1       H      0.801800000000     0.865800000000     0.019800000000     0          
C6       C      0.658000000000     0.840330000000     0.133420000000     0          
C7       C      0.754900000000     0.858000000000     0.037750000000     0          
H2       H      0.761400000000     0.856000000000     0.060600000000     0          
O4       O      0.690660000000     0.837800000000     0.141500000000     0          
C10      C      0.699100000000     0.829400000000     0.178400000000     0          
Zr1      Zr     0.875000000000     0.875000000000     0.937160000000     0          
O1       O      0.125430000000     0.076230000000     0.214080000000     0          
C3       C      0.136290000000     0.028890000000     0.263520000000     0          
H1       H      0.134200000000     0.051800000000     0.269800000000     0          
C6       C      0.159670000000     0.908000000000     0.383420000000     0          
C7       C      0.142000000000     0.004900000000     0.287750000000     0          
H2       H      0.144000000000     0.011400000000     0.310600000000     0          
O4       O      0.162200000000     0.940660000000     0.391500000000     0          
C10      C      0.170600000000     0.949100000000     0.428400000000     0          
O1       O      0.826230000000     0.375430000000     0.285920000000     0          
C3       C      0.778890000000     0.386290000000     0.236480000000     0          
H1       H      0.801800000000     0.384200000000     0.230200000000     0          
C6       C      0.658000000000     0.409670000000     0.116580000000     0          
C7       C      0.754900000000     0.392000000000     0.212250000000     0          
H2       H      0.761400000000     0.394000000000     0.189400000000     0          
O4       O      0.690660000000     0.412200000000     0.108500000000     0          
C10      C      0.699100000000     0.420600000000     0.071600000000     0          
O1       O      0.624570000000     0.576230000000     0.035920000000     0          
C3       C      0.613710000000     0.528890000000     0.986480000000     0          
H1       H      0.615800000000     0.551800000000     0.980200000000     0          
C6       C      0.590330000000     0.408000000000     0.866580000000     0          
C7       C      0.608000000000     0.504900000000     0.962250000000     0          
H2       H      0.606000000000     0.511400000000     0.939400000000     0          
O4       O      0.587800000000     0.440660000000     0.858500000000     0          
C10      C      0.579400000000     0.449100000000     0.821600000000     0          
O1       O      0.625430000000     0.173770000000     0.535920000000     0          
C3       C      0.636290000000     0.221110000000     0.486480000000     0          
H1       H      0.634200000000     0.198200000000     0.480200000000     0          
C6       C      0.659670000000     0.342000000000     0.366580000000     0          
C7       C      0.642000000000     0.245100000000     0.462250000000     0          
H2       H      0.644000000000     0.238600000000     0.439400000000     0          
O4       O      0.662200000000     0.309340000000     0.358500000000     0          
C10      C      0.670600000000     0.300900000000     0.321600000000     0          
C1       C      0.627760000000     0.203850000000     0.546150000000     0          
C2       C      0.633550000000     0.230160000000     0.519840000000     0          
C4       C      0.657380000000     0.350290000000     0.399710000000     0          
C5       C      0.644820000000     0.278800000000     0.471200000000     0          
C8       C      0.650410000000     0.304120000000     0.445880000000     0          
C9       C      0.654770000000     0.324950000000     0.425050000000     0          
O1       O      0.714080000000     0.076230000000     0.625430000000     0          
C3       C      0.763520000000     0.028890000000     0.636290000000     0          
H1       H      0.769800000000     0.051800000000     0.634200000000     0          
C6       C      0.883420000000     0.908000000000     0.659670000000     0          
C7       C      0.787750000000     0.004900000000     0.642000000000     0          
H2       H      0.810600000000     0.011400000000     0.644000000000     0          
O4       O      0.891500000000     0.940660000000     0.662200000000     0          
C10      C      0.928400000000     0.949100000000     0.670600000000     0          
Zr1      Zr     0.687160000000     0.125000000000     0.625000000000     0          
C1       C      0.703850000000     0.046150000000     0.627760000000     0          
C2       C      0.730160000000     0.019840000000     0.633550000000     0          
C4       C      0.850290000000     0.899710000000     0.657380000000     0          
C5       C      0.778800000000     0.971200000000     0.644820000000     0          
C8       C      0.804120000000     0.945880000000     0.650410000000     0          
C9       C      0.824950000000     0.925050000000     0.654770000000     0          
O1       O      0.423770000000     0.464080000000     0.875430000000     0          
C3       C      0.471110000000     0.513520000000     0.886290000000     0          
H1       H      0.448200000000     0.519800000000     0.884200000000     0          
C6       C      0.592000000000     0.633420000000     0.909670000000     0          
C7       C      0.495100000000     0.537750000000     0.892000000000     0          
H2       H      0.488600000000     0.560600000000     0.894000000000     0          
O4       O      0.559340000000     0.641500000000     0.912200000000     0          
C10      C      0.550900000000     0.678400000000     0.920600000000     0          
O1       O      0.035920000000     0.173770000000     0.125430000000     0          
C3       C      0.986480000000     0.221110000000     0.136290000000     0          
H1       H      0.980200000000     0.198200000000     0.134200000000     0          
C6       C      0.866580000000     0.342000000000     0.159670000000     0          
C7       C      0.962250000000     0.245100000000     0.142000000000     0          
H2       H      0.939400000000     0.238600000000     0.144000000000     0          
O4       O      0.858500000000     0.309340000000     0.162200000000     0          
C10      C      0.821600000000     0.300900000000     0.170600000000     0          
O1       O      0.326230000000     0.785920000000     0.375430000000     0          
C3       C      0.278890000000     0.736480000000     0.386290000000     0          
H1       H      0.301800000000     0.730200000000     0.384200000000     0          
C6       C      0.158000000000     0.616580000000     0.409670000000     0          
C7       C      0.254900000000     0.712250000000     0.392000000000     0          
H2       H      0.261400000000     0.689400000000     0.394000000000     0          
O4       O      0.190660000000     0.608500000000     0.412200000000     0          
C10      C      0.199100000000     0.571600000000     0.420600000000     0          
C1       C      0.296150000000     0.796150000000     0.377760000000     0          
C2       C      0.269840000000     0.769840000000     0.383550000000     0          
C4       C      0.149710000000     0.649710000000     0.407380000000     0          
C5       C      0.221200000000     0.721200000000     0.394820000000     0          
C8       C      0.195880000000     0.695880000000     0.400410000000     0          
C9       C      0.175050000000     0.675050000000     0.404770000000     0          
O1       O      0.714080000000     0.173770000000     0.624570000000     0          
C3       C      0.763520000000     0.221110000000     0.613710000000     0          
H1       H      0.769800000000     0.198200000000     0.615800000000     0          
C6       C      0.883420000000     0.342000000000     0.590330000000     0          
C7       C      0.787750000000     0.245100000000     0.608000000000     0          
H2       H      0.810600000000     0.238600000000     0.606000000000     0          
O4       O      0.891500000000     0.309340000000     0.587800000000     0          
C10      C      0.928400000000     0.300900000000     0.579400000000     0          
C1       C      0.703850000000     0.203850000000     0.622240000000     0          
C2       C      0.730160000000     0.230160000000     0.616450000000     0          
C4       C      0.850290000000     0.350290000000     0.592620000000     0          
C5       C      0.778800000000     0.278800000000     0.605180000000     0          
C8       C      0.804120000000     0.304120000000     0.599590000000     0          
C9       C      0.824950000000     0.324950000000     0.595230000000     0          
O1       O      0.326230000000     0.464080000000     0.874570000000     0          
C3       C      0.278890000000     0.513520000000     0.863710000000     0          
H1       H      0.301800000000     0.519800000000     0.865800000000     0          
C6       C      0.158000000000     0.633420000000     0.840330000000     0          
C7       C      0.254900000000     0.537750000000     0.858000000000     0          
H2       H      0.261400000000     0.560600000000     0.856000000000     0          
O4       O      0.190660000000     0.641500000000     0.837800000000     0          
C10      C      0.199100000000     0.678400000000     0.829400000000     0          
C1       C      0.296150000000     0.453850000000     0.872240000000     0          
C2       C      0.269840000000     0.480160000000     0.866450000000     0          
C4       C      0.149710000000     0.600290000000     0.842620000000     0          
C5       C      0.221200000000     0.528800000000     0.855180000000     0          
C8       C      0.195880000000     0.554120000000     0.849590000000     0          
C9       C      0.175050000000     0.574950000000     0.845230000000     0          
O1       O      0.035920000000     0.076230000000     0.124570000000     0          
C3       C      0.986480000000     0.028890000000     0.113710000000     0          
H1       H      0.980200000000     0.051800000000     0.115800000000     0          
C6       C      0.866580000000     0.908000000000     0.090330000000     0          
C7       C      0.962250000000     0.004900000000     0.108000000000     0          
H2       H      0.939400000000     0.011400000000     0.106000000000     0          
O4       O      0.858500000000     0.940660000000     0.087800000000     0          
C10      C      0.821600000000     0.949100000000     0.079400000000     0          
O1       O      0.423770000000     0.785920000000     0.374570000000     0          
C3       C      0.471110000000     0.736480000000     0.363710000000     0          
H1       H      0.448200000000     0.730200000000     0.365800000000     0          
C6       C      0.592000000000     0.616580000000     0.340330000000     0          
C7       C      0.495100000000     0.712250000000     0.358000000000     0          
H2       H      0.488600000000     0.689400000000     0.356000000000     0          
O4       O      0.559340000000     0.608500000000     0.337800000000     0          
C10      C      0.550900000000     0.571600000000     0.329400000000     0          
O1       O      0.625430000000     0.214080000000     0.576230000000     0          
C3       C      0.636290000000     0.263520000000     0.528890000000     0          
H1       H      0.634200000000     0.269800000000     0.551800000000     0          
C6       C      0.659670000000     0.383420000000     0.408000000000     0          
C7       C      0.642000000000     0.287750000000     0.504900000000     0          
H2       H      0.644000000000     0.310600000000     0.511400000000     0          
O4       O      0.662200000000     0.391500000000     0.440660000000     0          
C10      C      0.670600000000     0.428400000000     0.449100000000     0          
O1       O      0.285920000000     0.375430000000     0.826230000000     0          
C3       C      0.236480000000     0.386290000000     0.778890000000     0          
H1       H      0.230200000000     0.384200000000     0.801800000000     0          
C6       C      0.116580000000     0.409670000000     0.658000000000     0          
C7       C      0.212250000000     0.392000000000     0.754900000000     0          
H2       H      0.189400000000     0.394000000000     0.761400000000     0          
O4       O      0.108500000000     0.412200000000     0.690660000000     0          
C10      C      0.071600000000     0.420600000000     0.699100000000     0          
Zr1      Zr     0.312840000000     0.375000000000     0.875000000000     0          
C1       C      0.296150000000     0.377760000000     0.796150000000     0          
C2       C      0.269840000000     0.383550000000     0.769840000000     0          
C4       C      0.149710000000     0.407380000000     0.649710000000     0          
C5       C      0.221200000000     0.394820000000     0.721200000000     0          
C8       C      0.195880000000     0.400410000000     0.695880000000     0          
C9       C      0.175050000000     0.404770000000     0.675050000000     0          
O1       O      0.124570000000     0.035920000000     0.076230000000     0          
C3       C      0.113710000000     0.986480000000     0.028890000000     0          
H1       H      0.115800000000     0.980200000000     0.051800000000     0          
C6       C      0.090330000000     0.866580000000     0.908000000000     0          
C7       C      0.108000000000     0.962250000000     0.004900000000     0          
H2       H      0.106000000000     0.939400000000     0.011400000000     0          
O4       O      0.087800000000     0.858500000000     0.940660000000     0          
C10      C      0.079400000000     0.821600000000     0.949100000000     0          
C1       C      0.122240000000     0.046150000000     0.046150000000     0          
C2       C      0.116450000000     0.019840000000     0.019840000000     0          
C4       C      0.092620000000     0.899710000000     0.899710000000     0          
C5       C      0.105180000000     0.971200000000     0.971200000000     0          
C8       C      0.099590000000     0.945880000000     0.945880000000     0          
C9       C      0.095230000000     0.925050000000     0.925050000000     0          
O1       O      0.464080000000     0.874570000000     0.326230000000     0          
C3       C      0.513520000000     0.863710000000     0.278890000000     0          
H1       H      0.519800000000     0.865800000000     0.301800000000     0          
C6       C      0.633420000000     0.840330000000     0.158000000000     0          
C7       C      0.537750000000     0.858000000000     0.254900000000     0          
H2       H      0.560600000000     0.856000000000     0.261400000000     0          
O4       O      0.641500000000     0.837800000000     0.190660000000     0          
C10      C      0.678400000000     0.829400000000     0.199100000000     0          
C1       C      0.453850000000     0.872240000000     0.296150000000     0          
C2       C      0.480160000000     0.866450000000     0.269840000000     0          
C4       C      0.600290000000     0.842620000000     0.149710000000     0          
C5       C      0.528800000000     0.855180000000     0.221200000000     0          
C8       C      0.554120000000     0.849590000000     0.195880000000     0          
C9       C      0.574950000000     0.845230000000     0.175050000000     0          
O1       O      0.625430000000     0.035920000000     0.673770000000     0          
C3       C      0.636290000000     0.986480000000     0.721110000000     0          
H1       H      0.634200000000     0.980200000000     0.698200000000     0          
C6       C      0.659670000000     0.866580000000     0.842000000000     0          
C7       C      0.642000000000     0.962250000000     0.745100000000     0          
H2       H      0.644000000000     0.939400000000     0.738600000000     0          
O4       O      0.662200000000     0.858500000000     0.809340000000     0          
C10      C      0.670600000000     0.821600000000     0.800900000000     0          
C1       C      0.627760000000     0.046150000000     0.703850000000     0          
C2       C      0.633550000000     0.019840000000     0.730160000000     0          
C4       C      0.657380000000     0.899710000000     0.850290000000     0          
C5       C      0.644820000000     0.971200000000     0.778800000000     0          
C8       C      0.650410000000     0.945880000000     0.804120000000     0          
C9       C      0.654770000000     0.925050000000     0.824950000000     0          
O1       O      0.464080000000     0.375430000000     0.923770000000     0          
C3       C      0.513520000000     0.386290000000     0.971110000000     0          
H1       H      0.519800000000     0.384200000000     0.948200000000     0          
C6       C      0.633420000000     0.409670000000     0.092000000000     0          
C7       C      0.537750000000     0.392000000000     0.995100000000     0          
H2       H      0.560600000000     0.394000000000     0.988600000000     0          
O4       O      0.641500000000     0.412200000000     0.059340000000     0          
C10      C      0.678400000000     0.420600000000     0.050900000000     0          
O1       O      0.124570000000     0.214080000000     0.173770000000     0          
C3       C      0.113710000000     0.263520000000     0.221110000000     0          
H1       H      0.115800000000     0.269800000000     0.198200000000     0          
C6       C      0.090330000000     0.383420000000     0.342000000000     0          
C7       C      0.108000000000     0.287750000000     0.245100000000     0          
H2       H      0.106000000000     0.310600000000     0.238600000000     0          
O4       O      0.087800000000     0.391500000000     0.309340000000     0          
C10      C      0.079400000000     0.428400000000     0.300900000000     0          
C1       C      0.122240000000     0.203850000000     0.203850000000     0          
C2       C      0.116450000000     0.230160000000     0.230160000000     0          
C4       C      0.092620000000     0.350290000000     0.350290000000     0          
C5       C      0.105180000000     0.278800000000     0.278800000000     0          
C8       C      0.099590000000     0.304120000000     0.304120000000     0          
C9       C      0.095230000000     0.324950000000     0.324950000000     0          
O1       O      0.285920000000     0.874570000000     0.423770000000     0          
C3       C      0.236480000000     0.863710000000     0.471110000000     0          
H1       H      0.230200000000     0.865800000000     0.448200000000     0          
C6       C      0.116580000000     0.840330000000     0.592000000000     0          
C7       C      0.212250000000     0.858000000000     0.495100000000     0          
H2       H      0.189400000000     0.856000000000     0.488600000000     0          
O4       O      0.108500000000     0.837800000000     0.559340000000     0          
C10      C      0.071600000000     0.829400000000     0.550900000000     0          
Zr1      Zr     0.312840000000     0.875000000000     0.375000000000     0          
C1       C      0.296150000000     0.872240000000     0.453850000000     0          
C2       C      0.269840000000     0.866450000000     0.480160000000     0          
C4       C      0.149710000000     0.842620000000     0.600290000000     0          
C5       C      0.221200000000     0.855180000000     0.528800000000     0          
C8       C      0.195880000000     0.849590000000     0.554120000000     0          
C9       C      0.175050000000     0.845230000000     0.574950000000     0          
O1       O      0.576230000000     0.125430000000     0.714080000000     0          
C3       C      0.528890000000     0.136290000000     0.763520000000     0          
H1       H      0.551800000000     0.134200000000     0.769800000000     0          
C6       C      0.408000000000     0.159670000000     0.883420000000     0          
C7       C      0.504900000000     0.142000000000     0.787750000000     0          
H2       H      0.511400000000     0.144000000000     0.810600000000     0          
O4       O      0.440660000000     0.162200000000     0.891500000000     0          
C10      C      0.449100000000     0.170600000000     0.928400000000     0          
C1       C      0.546150000000     0.127760000000     0.703850000000     0          
C2       C      0.519840000000     0.133550000000     0.730160000000     0          
C4       C      0.399710000000     0.157380000000     0.850290000000     0          
C5       C      0.471200000000     0.144820000000     0.778800000000     0          
C8       C      0.445880000000     0.150410000000     0.804120000000     0          
C9       C      0.425050000000     0.154770000000     0.824950000000     0          
O1       O      0.076230000000     0.624570000000     0.535920000000     0          
C3       C      0.028890000000     0.613710000000     0.486480000000     0          
H1       H      0.051800000000     0.615800000000     0.480200000000     0          
C6       C      0.908000000000     0.590330000000     0.366580000000     0          
C7       C      0.004900000000     0.608000000000     0.462250000000     0          
H2       H      0.011400000000     0.606000000000     0.439400000000     0          
O4       O      0.940660000000     0.587800000000     0.358500000000     0          
C10      C      0.949100000000     0.579400000000     0.321600000000     0          
O1       O      0.875430000000     0.826230000000     0.785920000000     0          
C3       C      0.886290000000     0.778890000000     0.736480000000     0          
H1       H      0.884200000000     0.801800000000     0.730200000000     0          
C6       C      0.909670000000     0.658000000000     0.616580000000     0          
C7       C      0.892000000000     0.754900000000     0.712250000000     0          
H2       H      0.894000000000     0.761400000000     0.689400000000     0          
O4       O      0.912200000000     0.690660000000     0.608500000000     0          
C10      C      0.920600000000     0.699100000000     0.571600000000     0          
C1       C      0.877760000000     0.796150000000     0.796150000000     0          
C2       C      0.883550000000     0.769840000000     0.769840000000     0          
C4       C      0.907380000000     0.649710000000     0.649710000000     0          
C5       C      0.894820000000     0.721200000000     0.721200000000     0          
C8       C      0.900410000000     0.695880000000     0.695880000000     0          
C9       C      0.904770000000     0.675050000000     0.675050000000     0          
O1       O      0.673770000000     0.625430000000     0.035920000000     0          
C3       C      0.721110000000     0.636290000000     0.986480000000     0          
H1       H      0.698200000000     0.634200000000     0.980200000000     0          
C6       C      0.842000000000     0.659670000000     0.866580000000     0          
C7       C      0.745100000000     0.642000000000     0.962250000000     0          
H2       H      0.738600000000     0.644000000000     0.939400000000     0          
O4       O      0.809340000000     0.662200000000     0.858500000000     0          
C10      C      0.800900000000     0.670600000000     0.821600000000     0          
C1       C      0.703850000000     0.627760000000     0.046150000000     0          
C2       C      0.730160000000     0.633550000000     0.019840000000     0          
C4       C      0.850290000000     0.657380000000     0.899710000000     0          
C5       C      0.778800000000     0.644820000000     0.971200000000     0          
C8       C      0.804120000000     0.650410000000     0.945880000000     0          
C9       C      0.824950000000     0.654770000000     0.925050000000     0          
O1       O      0.374570000000     0.423770000000     0.785920000000     0          
C3       C      0.363710000000     0.471110000000     0.736480000000     0          
H1       H      0.365800000000     0.448200000000     0.730200000000     0          
C6       C      0.340330000000     0.592000000000     0.616580000000     0          
C7       C      0.358000000000     0.495100000000     0.712250000000     0          
H2       H      0.356000000000     0.488600000000     0.689400000000     0          
O4       O      0.337800000000     0.559340000000     0.608500000000     0          
C10      C      0.329400000000     0.550900000000     0.571600000000     0          
C1       C      0.372240000000     0.453850000000     0.796150000000     0          
C2       C      0.366450000000     0.480160000000     0.769840000000     0          
C4       C      0.342620000000     0.600290000000     0.649710000000     0          
C5       C      0.355180000000     0.528800000000     0.721200000000     0          
C8       C      0.349590000000     0.554120000000     0.695880000000     0          
C9       C      0.345230000000     0.574950000000     0.675050000000     0          
O1       O      0.673770000000     0.124570000000     0.714080000000     0          
C3       C      0.721110000000     0.113710000000     0.763520000000     0          
H1       H      0.698200000000     0.115800000000     0.769800000000     0          
C6       C      0.842000000000     0.090330000000     0.883420000000     0          
C7       C      0.745100000000     0.108000000000     0.787750000000     0          
H2       H      0.738600000000     0.106000000000     0.810600000000     0          
O4       O      0.809340000000     0.087800000000     0.891500000000     0          
C10      C      0.800900000000     0.079400000000     0.928400000000     0          
C1       C      0.703850000000     0.122240000000     0.703850000000     0          
C2       C      0.730160000000     0.116450000000     0.730160000000     0          
C4       C      0.850290000000     0.092620000000     0.850290000000     0          
C5       C      0.778800000000     0.105180000000     0.778800000000     0          
C8       C      0.804120000000     0.099590000000     0.804120000000     0          
C9       C      0.824950000000     0.095230000000     0.824950000000     0          
O1       O      0.875430000000     0.923770000000     0.964080000000     0          
C3       C      0.886290000000     0.971110000000     0.013520000000     0          
H1       H      0.884200000000     0.948200000000     0.019800000000     0          
C6       C      0.909670000000     0.092000000000     0.133420000000     0          
C7       C      0.892000000000     0.995100000000     0.037750000000     0          
H2       H      0.894000000000     0.988600000000     0.060600000000     0          
O4       O      0.912200000000     0.059340000000     0.141500000000     0          
C10      C      0.920600000000     0.050900000000     0.178400000000     0          
C1       C      0.877760000000     0.953850000000     0.953850000000     0          
C2       C      0.883550000000     0.980160000000     0.980160000000     0          
C4       C      0.907380000000     0.100290000000     0.100290000000     0          
C5       C      0.894820000000     0.028800000000     0.028800000000     0          
C8       C      0.900410000000     0.054120000000     0.054120000000     0          
C9       C      0.904770000000     0.074950000000     0.074950000000     0          
O1       O      0.874570000000     0.326230000000     0.464080000000     0          
C3       C      0.863710000000     0.278890000000     0.513520000000     0          
H1       H      0.865800000000     0.301800000000     0.519800000000     0          
C6       C      0.840330000000     0.158000000000     0.633420000000     0          
C7       C      0.858000000000     0.254900000000     0.537750000000     0          
H2       H      0.856000000000     0.261400000000     0.560600000000     0          
O4       O      0.837800000000     0.190660000000     0.641500000000     0          
C10      C      0.829400000000     0.199100000000     0.678400000000     0          
O1       O      0.285920000000     0.923770000000     0.374570000000     0          
C3       C      0.236480000000     0.971110000000     0.363710000000     0          
H1       H      0.230200000000     0.948200000000     0.365800000000     0          
C6       C      0.116580000000     0.092000000000     0.340330000000     0          
C7       C      0.212250000000     0.995100000000     0.358000000000     0          
H2       H      0.189400000000     0.988600000000     0.356000000000     0          
O4       O      0.108500000000     0.059340000000     0.337800000000     0          
C10      C      0.071600000000     0.050900000000     0.329400000000     0          
C1       C      0.296150000000     0.953850000000     0.372240000000     0          
C2       C      0.269840000000     0.980160000000     0.366450000000     0          
C4       C      0.149710000000     0.100290000000     0.342620000000     0          
C5       C      0.221200000000     0.028800000000     0.355180000000     0          
C8       C      0.195880000000     0.054120000000     0.349590000000     0          
C9       C      0.175050000000     0.074950000000     0.345230000000     0          
O1       O      0.576230000000     0.535920000000     0.124570000000     0          
C3       C      0.528890000000     0.486480000000     0.113710000000     0          
H1       H      0.551800000000     0.480200000000     0.115800000000     0          
C6       C      0.408000000000     0.366580000000     0.090330000000     0          
C7       C      0.504900000000     0.462250000000     0.108000000000     0          
H2       H      0.511400000000     0.439400000000     0.106000000000     0          
O4       O      0.440660000000     0.358500000000     0.087800000000     0          
C10      C      0.449100000000     0.321600000000     0.079400000000     0          
O1       O      0.964080000000     0.826230000000     0.874570000000     0          
C3       C      0.013520000000     0.778890000000     0.863710000000     0          
H1       H      0.019800000000     0.801800000000     0.865800000000     0          
C6       C      0.133420000000     0.658000000000     0.840330000000     0          
C7       C      0.037750000000     0.754900000000     0.858000000000     0          
H2       H      0.060600000000     0.761400000000     0.856000000000     0          
O4       O      0.141500000000     0.690660000000     0.837800000000     0          
C10      C      0.178400000000     0.699100000000     0.829400000000     0          
O1       O      0.673770000000     0.214080000000     0.624570000000     0          
C3       C      0.721110000000     0.263520000000     0.613710000000     0          
H1       H      0.698200000000     0.269800000000     0.615800000000     0          
C6       C      0.842000000000     0.383420000000     0.590330000000     0          
C7       C      0.745100000000     0.287750000000     0.608000000000     0          
H2       H      0.738600000000     0.310600000000     0.606000000000     0          
O4       O      0.809340000000     0.391500000000     0.587800000000     0          
C10      C      0.800900000000     0.428400000000     0.579400000000     0          
O1       O      0.285920000000     0.826230000000     0.375430000000     0          
C3       C      0.236480000000     0.778890000000     0.386290000000     0          
H1       H      0.230200000000     0.801800000000     0.384200000000     0          
C6       C      0.116580000000     0.658000000000     0.409670000000     0          
C7       C      0.212250000000     0.754900000000     0.392000000000     0          
H2       H      0.189400000000     0.761400000000     0.394000000000     0          
O4       O      0.108500000000     0.690660000000     0.412200000000     0          
C10      C      0.071600000000     0.699100000000     0.420600000000     0          
O1       O      0.673770000000     0.535920000000     0.125430000000     0          
C3       C      0.721110000000     0.486480000000     0.136290000000     0          
H1       H      0.698200000000     0.480200000000     0.134200000000     0          
C6       C      0.842000000000     0.366580000000     0.159670000000     0          
C7       C      0.745100000000     0.462250000000     0.142000000000     0          
H2       H      0.738600000000     0.439400000000     0.144000000000     0          
O4       O      0.809340000000     0.358500000000     0.162200000000     0          
C10      C      0.800900000000     0.321600000000     0.170600000000     0          
C1       C      0.703850000000     0.546150000000     0.127760000000     0          
C2       C      0.730160000000     0.519840000000     0.133550000000     0          
C4       C      0.850290000000     0.399710000000     0.157380000000     0          
C5       C      0.778800000000     0.471200000000     0.144820000000     0          
C8       C      0.804120000000     0.445880000000     0.150410000000     0          
C9       C      0.824950000000     0.425050000000     0.154770000000     0          
O1       O      0.964080000000     0.923770000000     0.875430000000     0          
C3       C      0.013520000000     0.971110000000     0.886290000000     0          
H1       H      0.019800000000     0.948200000000     0.884200000000     0          
C6       C      0.133420000000     0.092000000000     0.909670000000     0          
C7       C      0.037750000000     0.995100000000     0.892000000000     0          
H2       H      0.060600000000     0.988600000000     0.894000000000     0          
O4       O      0.141500000000     0.059340000000     0.912200000000     0          
C10      C      0.178400000000     0.050900000000     0.920600000000     0          
O1       O      0.576230000000     0.214080000000     0.625430000000     0          
C3       C      0.528890000000     0.263520000000     0.636290000000     0          
H1       H      0.551800000000     0.269800000000     0.634200000000     0          
C6       C      0.408000000000     0.383420000000     0.659670000000     0          
C7       C      0.504900000000     0.287750000000     0.642000000000     0          
H2       H      0.511400000000     0.310600000000     0.644000000000     0          
O4       O      0.440660000000     0.391500000000     0.662200000000     0          
C10      C      0.449100000000     0.428400000000     0.670600000000     0          
O1       O      0.374570000000     0.785920000000     0.423770000000     0          
C3       C      0.363710000000     0.736480000000     0.471110000000     0          
H1       H      0.365800000000     0.730200000000     0.448200000000     0          
C6       C      0.340330000000     0.616580000000     0.592000000000     0          
C7       C      0.358000000000     0.712250000000     0.495100000000     0          
H2       H      0.356000000000     0.689400000000     0.488600000000     0          
O4       O      0.337800000000     0.608500000000     0.559340000000     0          
C10      C      0.329400000000     0.571600000000     0.550900000000     0          
O1       O      0.714080000000     0.624570000000     0.173770000000     0          
C3       C      0.763520000000     0.613710000000     0.221110000000     0          
H1       H      0.769800000000     0.615800000000     0.198200000000     0          
C6       C      0.883420000000     0.590330000000     0.342000000000     0          
C7       C      0.787750000000     0.608000000000     0.245100000000     0          
H2       H      0.810600000000     0.606000000000     0.238600000000     0          
O4       O      0.891500000000     0.587800000000     0.309340000000     0          
C10      C      0.928400000000     0.579400000000     0.300900000000     0          
Zr1      Zr     0.687160000000     0.625000000000     0.125000000000     0          
C1       C      0.703850000000     0.622240000000     0.203850000000     0          
C2       C      0.730160000000     0.616450000000     0.230160000000     0          
C4       C      0.850290000000     0.592620000000     0.350290000000     0          
C5       C      0.778800000000     0.605180000000     0.278800000000     0          
C8       C      0.804120000000     0.599590000000     0.304120000000     0          
C9       C      0.824950000000     0.595230000000     0.324950000000     0          
O1       O      0.875430000000     0.964080000000     0.923770000000     0          
C3       C      0.886290000000     0.013520000000     0.971110000000     0          
H1       H      0.884200000000     0.019800000000     0.948200000000     0          
C6       C      0.909670000000     0.133420000000     0.092000000000     0          
C7       C      0.892000000000     0.037750000000     0.995100000000     0          
H2       H      0.894000000000     0.060600000000     0.988600000000     0          
O4       O      0.912200000000     0.141500000000     0.059340000000     0          
C10      C      0.920600000000     0.178400000000     0.050900000000     0          
O1       O      0.535920000000     0.125430000000     0.673770000000     0          
C3       C      0.486480000000     0.136290000000     0.721110000000     0          
H1       H      0.480200000000     0.134200000000     0.698200000000     0          
C6       C      0.366580000000     0.159670000000     0.842000000000     0          
C7       C      0.462250000000     0.142000000000     0.745100000000     0          
H2       H      0.439400000000     0.144000000000     0.738600000000     0          
O4       O      0.358500000000     0.162200000000     0.809340000000     0          
C10      C      0.321600000000     0.170600000000     0.800900000000     0          
O1       O      0.374570000000     0.964080000000     0.326230000000     0          
C3       C      0.363710000000     0.013520000000     0.278890000000     0          
H1       H      0.365800000000     0.019800000000     0.301800000000     0          
C6       C      0.340330000000     0.133420000000     0.158000000000     0          
C7       C      0.358000000000     0.037750000000     0.254900000000     0          
H2       H      0.356000000000     0.060600000000     0.261400000000     0          
O4       O      0.337800000000     0.141500000000     0.190660000000     0          
C10      C      0.329400000000     0.178400000000     0.199100000000     0          
C1       C      0.372240000000     0.953850000000     0.296150000000     0          
C2       C      0.366450000000     0.980160000000     0.269840000000     0          
C4       C      0.342620000000     0.100290000000     0.149710000000     0          
C5       C      0.355180000000     0.028800000000     0.221200000000     0          
C8       C      0.349590000000     0.054120000000     0.195880000000     0          
C9       C      0.345230000000     0.074950000000     0.175050000000     0          
O1       O      0.535920000000     0.624570000000     0.076230000000     0          
C3       C      0.486480000000     0.613710000000     0.028890000000     0          
H1       H      0.480200000000     0.615800000000     0.051800000000     0          
C6       C      0.366580000000     0.590330000000     0.908000000000     0          
C7       C      0.462250000000     0.608000000000     0.004900000000     0          
H2       H      0.439400000000     0.606000000000     0.011400000000     0          
O4       O      0.358500000000     0.587800000000     0.940660000000     0          
C10      C      0.321600000000     0.579400000000     0.949100000000     0          
O1       O      0.875430000000     0.785920000000     0.826230000000     0          
C3       C      0.886290000000     0.736480000000     0.778890000000     0          
H1       H      0.884200000000     0.730200000000     0.801800000000     0          
C6       C      0.909670000000     0.616580000000     0.658000000000     0          
C7       C      0.892000000000     0.712250000000     0.754900000000     0          
H2       H      0.894000000000     0.689400000000     0.761400000000     0          
O4       O      0.912200000000     0.608500000000     0.690660000000     0          
C10      C      0.920600000000     0.571600000000     0.699100000000     0          
O1       O      0.714080000000     0.125430000000     0.576230000000     0          
C3       C      0.763520000000     0.136290000000     0.528890000000     0          
H1       H      0.769800000000     0.134200000000     0.551800000000     0          
C6       C      0.883420000000     0.159670000000     0.408000000000     0          
C7       C      0.787750000000     0.142000000000     0.504900000000     0          
H2       H      0.810600000000     0.144000000000     0.511400000000     0          
O4       O      0.891500000000     0.162200000000     0.440660000000     0          
C10      C      0.928400000000     0.170600000000     0.449100000000     0          
C1       C      0.703850000000     0.127760000000     0.546150000000     0          
C2       C      0.730160000000     0.133550000000     0.519840000000     0          
C4       C      0.850290000000     0.157380000000     0.399710000000     0          
C5       C      0.778800000000     0.144820000000     0.471200000000     0          
C8       C      0.804120000000     0.150410000000     0.445880000000     0          
C9       C      0.824950000000     0.154770000000     0.425050000000     0          
O1       O      0.423770000000     0.874570000000     0.285920000000     0          
C3       C      0.471110000000     0.863710000000     0.236480000000     0          
H1       H      0.448200000000     0.865800000000     0.230200000000     0          
C6       C      0.592000000000     0.840330000000     0.116580000000     0          
C7       C      0.495100000000     0.858000000000     0.212250000000     0          
H2       H      0.488600000000     0.856000000000     0.189400000000     0          
O4       O      0.559340000000     0.837800000000     0.108500000000     0          
C10      C      0.550900000000     0.829400000000     0.071600000000     0          
O1       O      0.923770000000     0.375430000000     0.464080000000     0          
C3       C      0.971110000000     0.386290000000     0.513520000000     0          
H1       H      0.948200000000     0.384200000000     0.519800000000     0          
C6       C      0.092000000000     0.409670000000     0.633420000000     0          
C7       C      0.995100000000     0.392000000000     0.537750000000     0          
H2       H      0.988600000000     0.394000000000     0.560600000000     0          
O4       O      0.059340000000     0.412200000000     0.641500000000     0          
C10      C      0.050900000000     0.420600000000     0.678400000000     0          
O1       O      0.124570000000     0.173770000000     0.214080000000     0          
C3       C      0.113710000000     0.221110000000     0.263520000000     0          
H1       H      0.115800000000     0.198200000000     0.269800000000     0          
C6       C      0.090330000000     0.342000000000     0.383420000000     0          
C7       C      0.108000000000     0.245100000000     0.287750000000     0          
H2       H      0.106000000000     0.238600000000     0.310600000000     0          
O4       O      0.087800000000     0.309340000000     0.391500000000     0          
C10      C      0.079400000000     0.300900000000     0.428400000000     0          
O1       O      0.326230000000     0.374570000000     0.964080000000     0          
C3       C      0.278890000000     0.363710000000     0.013520000000     0          
H1       H      0.301800000000     0.365800000000     0.019800000000     0          
C6       C      0.158000000000     0.340330000000     0.133420000000     0          
C7       C      0.254900000000     0.358000000000     0.037750000000     0          
H2       H      0.261400000000     0.356000000000     0.060600000000     0          
O4       O      0.190660000000     0.337800000000     0.141500000000     0          
C10      C      0.199100000000     0.329400000000     0.178400000000     0          
C1       C      0.296150000000     0.372240000000     0.953850000000     0          
C2       C      0.269840000000     0.366450000000     0.980160000000     0          
C4       C      0.149710000000     0.342620000000     0.100290000000     0          
C5       C      0.221200000000     0.355180000000     0.028800000000     0          
C8       C      0.195880000000     0.349590000000     0.054120000000     0          
C9       C      0.175050000000     0.345230000000     0.074950000000     0          
O1       O      0.625430000000     0.576230000000     0.214080000000     0          
C3       C      0.636290000000     0.528890000000     0.263520000000     0          
H1       H      0.634200000000     0.551800000000     0.269800000000     0          
C6       C      0.659670000000     0.408000000000     0.383420000000     0          
C7       C      0.642000000000     0.504900000000     0.287750000000     0          
H2       H      0.644000000000     0.511400000000     0.310600000000     0          
O4       O      0.662200000000     0.440660000000     0.391500000000     0          
C10      C      0.670600000000     0.449100000000     0.428400000000     0          
C1       C      0.627760000000     0.546150000000     0.203850000000     0          
C2       C      0.633550000000     0.519840000000     0.230160000000     0          
C4       C      0.657380000000     0.399710000000     0.350290000000     0          
C5       C      0.644820000000     0.471200000000     0.278800000000     0          
C8       C      0.650410000000     0.445880000000     0.304120000000     0          
C9       C      0.654770000000     0.425050000000     0.324950000000     0          
O1       O      0.326230000000     0.875430000000     0.285920000000     0          
C3       C      0.278890000000     0.886290000000     0.236480000000     0          
H1       H      0.301800000000     0.884200000000     0.230200000000     0          
C6       C      0.158000000000     0.909670000000     0.116580000000     0          
C7       C      0.254900000000     0.892000000000     0.212250000000     0          
H2       H      0.261400000000     0.894000000000     0.189400000000     0          
O4       O      0.190660000000     0.912200000000     0.108500000000     0          
C10      C      0.199100000000     0.920600000000     0.071600000000     0          
C1       C      0.296150000000     0.877760000000     0.296150000000     0          
C2       C      0.269840000000     0.883550000000     0.269840000000     0          
C4       C      0.149710000000     0.907380000000     0.149710000000     0          
C5       C      0.221200000000     0.894820000000     0.221200000000     0          
C8       C      0.195880000000     0.900410000000     0.195880000000     0          
C9       C      0.175050000000     0.904770000000     0.175050000000     0          
O1       O      0.124570000000     0.076230000000     0.035920000000     0          
C3       C      0.113710000000     0.028890000000     0.986480000000     0          
H1       H      0.115800000000     0.051800000000     0.980200000000     0          
C6       C      0.090330000000     0.908000000000     0.866580000000     0          
C7       C      0.108000000000     0.004900000000     0.962250000000     0          
H2       H      0.106000000000     0.011400000000     0.939400000000     0          
O4       O      0.087800000000     0.940660000000     0.858500000000     0          
C10      C      0.079400000000     0.949100000000     0.821600000000     0          
O1       O      0.125430000000     0.673770000000     0.535920000000     0          
C3       C      0.136290000000     0.721110000000     0.486480000000     0          
H1       H      0.134200000000     0.698200000000     0.480200000000     0          
C6       C      0.159670000000     0.842000000000     0.366580000000     0          
C7       C      0.142000000000     0.745100000000     0.462250000000     0          
H2       H      0.144000000000     0.738600000000     0.439400000000     0          
O4       O      0.162200000000     0.809340000000     0.358500000000     0          
C10      C      0.170600000000     0.800900000000     0.321600000000     0          
O1       O      0.714080000000     0.576230000000     0.125430000000     0          
C3       C      0.763520000000     0.528890000000     0.136290000000     0          
H1       H      0.769800000000     0.551800000000     0.134200000000     0          
C6       C      0.883420000000     0.408000000000     0.159670000000     0          
C7       C      0.787750000000     0.504900000000     0.142000000000     0          
H2       H      0.810600000000     0.511400000000     0.144000000000     0          
O4       O      0.891500000000     0.440660000000     0.162200000000     0          
C10      C      0.928400000000     0.449100000000     0.170600000000     0          
O1       O      0.423770000000     0.964080000000     0.375430000000     0          
C3       C      0.471110000000     0.013520000000     0.386290000000     0          
H1       H      0.448200000000     0.019800000000     0.384200000000     0          
C6       C      0.592000000000     0.133420000000     0.409670000000     0          
C7       C      0.495100000000     0.037750000000     0.392000000000     0          
H2       H      0.488600000000     0.060600000000     0.394000000000     0          
O4       O      0.559340000000     0.141500000000     0.412200000000     0          
C10      C      0.550900000000     0.178400000000     0.420600000000     0          
O1       O      0.035920000000     0.673770000000     0.625430000000     0          
C3       C      0.986480000000     0.721110000000     0.636290000000     0          
H1       H      0.980200000000     0.698200000000     0.634200000000     0          
C6       C      0.866580000000     0.842000000000     0.659670000000     0          
C7       C      0.962250000000     0.745100000000     0.642000000000     0          
H2       H      0.939400000000     0.738600000000     0.644000000000     0          
O4       O      0.858500000000     0.809340000000     0.662200000000     0          
C10      C      0.821600000000     0.800900000000     0.670600000000     0          
O1       O      0.326230000000     0.285920000000     0.875430000000     0          
C3       C      0.278890000000     0.236480000000     0.886290000000     0          
H1       H      0.301800000000     0.230200000000     0.884200000000     0          
C6       C      0.158000000000     0.116580000000     0.909670000000     0          
C7       C      0.254900000000     0.212250000000     0.892000000000     0          
H2       H      0.261400000000     0.189400000000     0.894000000000     0          
O4       O      0.190660000000     0.108500000000     0.912200000000     0          
C10      C      0.199100000000     0.071600000000     0.920600000000     0          
C1       C      0.296150000000     0.296150000000     0.877760000000     0          
C2       C      0.269840000000     0.269840000000     0.883550000000     0          
C4       C      0.149710000000     0.149710000000     0.907380000000     0          
C5       C      0.221200000000     0.221200000000     0.894820000000     0          
C8       C      0.195880000000     0.195880000000     0.900410000000     0          
C9       C      0.175050000000     0.175050000000     0.904770000000     0          
O1       O      0.714080000000     0.673770000000     0.124570000000     0          
C3       C      0.763520000000     0.721110000000     0.113710000000     0          
H1       H      0.769800000000     0.698200000000     0.115800000000     0          
C6       C      0.883420000000     0.842000000000     0.090330000000     0          
C7       C      0.787750000000     0.745100000000     0.108000000000     0          
H2       H      0.810600000000     0.738600000000     0.106000000000     0          
O4       O      0.891500000000     0.809340000000     0.087800000000     0          
C10      C      0.928400000000     0.800900000000     0.079400000000     0          
C1       C      0.703850000000     0.703850000000     0.122240000000     0          
C2       C      0.730160000000     0.730160000000     0.116450000000     0          
C4       C      0.850290000000     0.850290000000     0.092620000000     0          
C5       C      0.778800000000     0.778800000000     0.105180000000     0          
C8       C      0.804120000000     0.804120000000     0.099590000000     0          
C9       C      0.824950000000     0.824950000000     0.095230000000     0          
O1       O      0.326230000000     0.964080000000     0.374570000000     0          
C3       C      0.278890000000     0.013520000000     0.363710000000     0          
H1       H      0.301800000000     0.019800000000     0.365800000000     0          
C6       C      0.158000000000     0.133420000000     0.340330000000     0          
C7       C      0.254900000000     0.037750000000     0.358000000000     0          
H2       H      0.261400000000     0.060600000000     0.356000000000     0          
O4       O      0.190660000000     0.141500000000     0.337800000000     0          
C10      C      0.199100000000     0.178400000000     0.329400000000     0          
O1       O      0.035920000000     0.576230000000     0.624570000000     0          
C3       C      0.986480000000     0.528890000000     0.613710000000     0          
H1       H      0.980200000000     0.551800000000     0.615800000000     0          
C6       C      0.866580000000     0.408000000000     0.590330000000     0          
C7       C      0.962250000000     0.504900000000     0.608000000000     0          
H2       H      0.939400000000     0.511400000000     0.606000000000     0          
O4       O      0.858500000000     0.440660000000     0.587800000000     0          
C10      C      0.821600000000     0.449100000000     0.579400000000     0          
O1       O      0.423770000000     0.285920000000     0.874570000000     0          
C3       C      0.471110000000     0.236480000000     0.863710000000     0          
H1       H      0.448200000000     0.230200000000     0.865800000000     0          
C6       C      0.592000000000     0.116580000000     0.840330000000     0          
C7       C      0.495100000000     0.212250000000     0.858000000000     0          
H2       H      0.488600000000     0.189400000000     0.856000000000     0          
O4       O      0.559340000000     0.108500000000     0.837800000000     0          
C10      C      0.550900000000     0.071600000000     0.829400000000     0          
O1       O      0.625430000000     0.714080000000     0.076230000000     0          
C3       C      0.636290000000     0.763520000000     0.028890000000     0          
H1       H      0.634200000000     0.769800000000     0.051800000000     0          
C6       C      0.659670000000     0.883420000000     0.908000000000     0          
C7       C      0.642000000000     0.787750000000     0.004900000000     0          
H2       H      0.644000000000     0.810600000000     0.011400000000     0          
O4       O      0.662200000000     0.891500000000     0.940660000000     0          
C10      C      0.670600000000     0.928400000000     0.949100000000     0          
O1       O      0.285920000000     0.875430000000     0.326230000000     0          
C3       C      0.236480000000     0.886290000000     0.278890000000     0          
H1       H      0.230200000000     0.884200000000     0.301800000000     0          
C6       C      0.116580000000     0.909670000000     0.158000000000     0          
C7       C      0.212250000000     0.892000000000     0.254900000000     0          
H2       H      0.189400000000     0.894000000000     0.261400000000     0          
O4       O      0.108500000000     0.912200000000     0.190660000000     0          
C10      C      0.071600000000     0.920600000000     0.199100000000     0          
O1       O      0.124570000000     0.535920000000     0.576230000000     0          
C3       C      0.113710000000     0.486480000000     0.528890000000     0          
H1       H      0.115800000000     0.480200000000     0.551800000000     0          
C6       C      0.090330000000     0.366580000000     0.408000000000     0          
C7       C      0.108000000000     0.462250000000     0.504900000000     0          
H2       H      0.106000000000     0.439400000000     0.511400000000     0          
O4       O      0.087800000000     0.358500000000     0.440660000000     0          
C10      C      0.079400000000     0.321600000000     0.449100000000     0          
C1       C      0.122240000000     0.546150000000     0.546150000000     0          
C2       C      0.116450000000     0.519840000000     0.519840000000     0          
C4       C      0.092620000000     0.399710000000     0.399710000000     0          
C5       C      0.105180000000     0.471200000000     0.471200000000     0          
C8       C      0.099590000000     0.445880000000     0.445880000000     0          
C9       C      0.095230000000     0.425050000000     0.425050000000     0          
O1       O      0.464080000000     0.374570000000     0.826230000000     0          
C3       C      0.513520000000     0.363710000000     0.778890000000     0          
H1       H      0.519800000000     0.365800000000     0.801800000000     0          
C6       C      0.633420000000     0.340330000000     0.658000000000     0          
C7       C      0.537750000000     0.358000000000     0.754900000000     0          
H2       H      0.560600000000     0.356000000000     0.761400000000     0          
O4       O      0.641500000000     0.337800000000     0.690660000000     0          
C10      C      0.678400000000     0.329400000000     0.699100000000     0          
C1       C      0.453850000000     0.372240000000     0.796150000000     0          
C2       C      0.480160000000     0.366450000000     0.769840000000     0          
C4       C      0.600290000000     0.342620000000     0.649710000000     0          
C5       C      0.528800000000     0.355180000000     0.721200000000     0          
C8       C      0.554120000000     0.349590000000     0.695880000000     0          
C9       C      0.574950000000     0.345230000000     0.675050000000     0          
O1       O      0.625430000000     0.535920000000     0.173770000000     0          
C3       C      0.636290000000     0.486480000000     0.221110000000     0          
H1       H      0.634200000000     0.480200000000     0.198200000000     0          
C6       C      0.659670000000     0.366580000000     0.342000000000     0          
C7       C      0.642000000000     0.462250000000     0.245100000000     0          
H2       H      0.644000000000     0.439400000000     0.238600000000     0          
O4       O      0.662200000000     0.358500000000     0.309340000000     0          
C10      C      0.670600000000     0.321600000000     0.300900000000     0          
O1       O      0.464080000000     0.875430000000     0.423770000000     0          
C3       C      0.513520000000     0.886290000000     0.471110000000     0          
H1       H      0.519800000000     0.884200000000     0.448200000000     0          
C6       C      0.633420000000     0.909670000000     0.592000000000     0          
C7       C      0.537750000000     0.892000000000     0.495100000000     0          
H2       H      0.560600000000     0.894000000000     0.488600000000     0          
O4       O      0.641500000000     0.912200000000     0.559340000000     0          
C10      C      0.678400000000     0.920600000000     0.550900000000     0          
O1       O      0.124570000000     0.714080000000     0.673770000000     0          
C3       C      0.113710000000     0.763520000000     0.721110000000     0          
H1       H      0.115800000000     0.769800000000     0.698200000000     0          
C6       C      0.090330000000     0.883420000000     0.842000000000     0          
C7       C      0.108000000000     0.787750000000     0.745100000000     0          
H2       H      0.106000000000     0.810600000000     0.738600000000     0          
O4       O      0.087800000000     0.891500000000     0.809340000000     0          
C10      C      0.079400000000     0.928400000000     0.800900000000     0          
C1       C      0.122240000000     0.703850000000     0.703850000000     0          
C2       C      0.116450000000     0.730160000000     0.730160000000     0          
C4       C      0.092620000000     0.850290000000     0.850290000000     0          
C5       C      0.105180000000     0.778800000000     0.778800000000     0          
C8       C      0.099590000000     0.804120000000     0.804120000000     0          
C9       C      0.095230000000     0.824950000000     0.824950000000     0          
O1       O      0.285920000000     0.374570000000     0.923770000000     0          
C3       C      0.236480000000     0.363710000000     0.971110000000     0          
H1       H      0.230200000000     0.365800000000     0.948200000000     0          
C6       C      0.116580000000     0.340330000000     0.092000000000     0          
C7       C      0.212250000000     0.358000000000     0.995100000000     0          
H2       H      0.189400000000     0.356000000000     0.988600000000     0          
O4       O      0.108500000000     0.337800000000     0.059340000000     0          
C10      C      0.071600000000     0.329400000000     0.050900000000     0          
O1       O      0.576230000000     0.625430000000     0.214080000000     0          
C3       C      0.528890000000     0.636290000000     0.263520000000     0          
H1       H      0.551800000000     0.634200000000     0.269800000000     0          
C6       C      0.408000000000     0.659670000000     0.383420000000     0          
C7       C      0.504900000000     0.642000000000     0.287750000000     0          
H2       H      0.511400000000     0.644000000000     0.310600000000     0          
O4       O      0.440660000000     0.662200000000     0.391500000000     0          
C10      C      0.449100000000     0.670600000000     0.428400000000     0          
C1       C      0.546150000000     0.627760000000     0.203850000000     0          
C2       C      0.519840000000     0.633550000000     0.230160000000     0          
C4       C      0.399710000000     0.657380000000     0.350290000000     0          
C5       C      0.471200000000     0.644820000000     0.278800000000     0          
C8       C      0.445880000000     0.650410000000     0.304120000000     0          
C9       C      0.425050000000     0.654770000000     0.324950000000     0          
O1       O      0.076230000000     0.124570000000     0.035920000000     0          
C3       C      0.028890000000     0.113710000000     0.986480000000     0          
H1       H      0.051800000000     0.115800000000     0.980200000000     0          
C6       C      0.908000000000     0.090330000000     0.866580000000     0          
C7       C      0.004900000000     0.108000000000     0.962250000000     0          
H2       H      0.011400000000     0.106000000000     0.939400000000     0          
O4       O      0.940660000000     0.087800000000     0.858500000000     0          
C10      C      0.949100000000     0.079400000000     0.821600000000     0          
O1       O      0.875430000000     0.326230000000     0.285920000000     0          
C3       C      0.886290000000     0.278890000000     0.236480000000     0          
H1       H      0.884200000000     0.301800000000     0.230200000000     0          
C6       C      0.909670000000     0.158000000000     0.116580000000     0          
C7       C      0.892000000000     0.254900000000     0.212250000000     0          
H2       H      0.894000000000     0.261400000000     0.189400000000     0          
O4       O      0.912200000000     0.190660000000     0.108500000000     0          
C10      C      0.920600000000     0.199100000000     0.071600000000     0          
C1       C      0.877760000000     0.296150000000     0.296150000000     0          
C2       C      0.883550000000     0.269840000000     0.269840000000     0          
C4       C      0.907380000000     0.149710000000     0.149710000000     0          
C5       C      0.894820000000     0.221200000000     0.221200000000     0          
C8       C      0.900410000000     0.195880000000     0.195880000000     0          
C9       C      0.904770000000     0.175050000000     0.175050000000     0          
O1       O      0.673770000000     0.125430000000     0.535920000000     0          
C3       C      0.721110000000     0.136290000000     0.486480000000     0          
H1       H      0.698200000000     0.134200000000     0.480200000000     0          
C6       C      0.842000000000     0.159670000000     0.366580000000     0          
C7       C      0.745100000000     0.142000000000     0.462250000000     0          
H2       H      0.738600000000     0.144000000000     0.439400000000     0          
O4       O      0.809340000000     0.162200000000     0.358500000000     0          
C10      C      0.800900000000     0.170600000000     0.321600000000     0          
O1       O      0.374570000000     0.923770000000     0.285920000000     0          
C3       C      0.363710000000     0.971110000000     0.236480000000     0          
H1       H      0.365800000000     0.948200000000     0.230200000000     0          
C6       C      0.340330000000     0.092000000000     0.116580000000     0          
C7       C      0.358000000000     0.995100000000     0.212250000000     0          
H2       H      0.356000000000     0.988600000000     0.189400000000     0          
O4       O      0.337800000000     0.059340000000     0.108500000000     0          
C10      C      0.329400000000     0.050900000000     0.071600000000     0          
O1       O      0.673770000000     0.624570000000     0.214080000000     0          
C3       C      0.721110000000     0.613710000000     0.263520000000     0          
H1       H      0.698200000000     0.615800000000     0.269800000000     0          
C6       C      0.842000000000     0.590330000000     0.383420000000     0          
C7       C      0.745100000000     0.608000000000     0.287750000000     0          
H2       H      0.738600000000     0.606000000000     0.310600000000     0          
O4       O      0.809340000000     0.587800000000     0.391500000000     0          
C10      C      0.800900000000     0.579400000000     0.428400000000     0          
O1       O      0.875430000000     0.423770000000     0.464080000000     0          
C3       C      0.886290000000     0.471110000000     0.513520000000     0          
H1       H      0.884200000000     0.448200000000     0.519800000000     0          
C6       C      0.909670000000     0.592000000000     0.633420000000     0          
C7       C      0.892000000000     0.495100000000     0.537750000000     0          
H2       H      0.894000000000     0.488600000000     0.560600000000     0          
O4       O      0.912200000000     0.559340000000     0.641500000000     0          
C10      C      0.920600000000     0.550900000000     0.678400000000     0          
C1       C      0.877760000000     0.453850000000     0.453850000000     0          
C2       C      0.883550000000     0.480160000000     0.480160000000     0          
C4       C      0.907380000000     0.600290000000     0.600290000000     0          
C5       C      0.894820000000     0.528800000000     0.528800000000     0          
C8       C      0.900410000000     0.554120000000     0.554120000000     0          
C9       C      0.904770000000     0.574950000000     0.574950000000     0          
O1       O      0.874570000000     0.826230000000     0.964080000000     0          
C3       C      0.863710000000     0.778890000000     0.013520000000     0          
H1       H      0.865800000000     0.801800000000     0.019800000000     0          
C6       C      0.840330000000     0.658000000000     0.133420000000     0          
C7       C      0.858000000000     0.754900000000     0.037750000000     0          
H2       H      0.856000000000     0.761400000000     0.060600000000     0          
O4       O      0.837800000000     0.690660000000     0.141500000000     0          
C10      C      0.829400000000     0.699100000000     0.178400000000     0          
O1       O      0.285920000000     0.423770000000     0.874570000000     0          
C3       C      0.236480000000     0.471110000000     0.863710000000     0          
H1       H      0.230200000000     0.448200000000     0.865800000000     0          
C6       C      0.116580000000     0.592000000000     0.840330000000     0          
C7       C      0.212250000000     0.495100000000     0.858000000000     0          
H2       H      0.189400000000     0.488600000000     0.856000000000     0          
O4       O      0.108500000000     0.559340000000     0.837800000000     0          
C10      C      0.071600000000     0.550900000000     0.829400000000     0          
O1       O      0.576230000000     0.035920000000     0.624570000000     0          
C3       C      0.528890000000     0.986480000000     0.613710000000     0          
H1       H      0.551800000000     0.980200000000     0.615800000000     0          
C6       C      0.408000000000     0.866580000000     0.590330000000     0          
C7       C      0.504900000000     0.962250000000     0.608000000000     0          
H2       H      0.511400000000     0.939400000000     0.606000000000     0          
O4       O      0.440660000000     0.858500000000     0.587800000000     0          
C10      C      0.449100000000     0.821600000000     0.579400000000     0          
O1       O      0.964080000000     0.326230000000     0.374570000000     0          
C3       C      0.013520000000     0.278890000000     0.363710000000     0          
H1       H      0.019800000000     0.301800000000     0.365800000000     0          
C6       C      0.133420000000     0.158000000000     0.340330000000     0          
C7       C      0.037750000000     0.254900000000     0.358000000000     0          
H2       H      0.060600000000     0.261400000000     0.356000000000     0          
O4       O      0.141500000000     0.190660000000     0.337800000000     0          
C10      C      0.178400000000     0.199100000000     0.329400000000     0          
O1       O      0.673770000000     0.714080000000     0.124570000000     0          
C3       C      0.721110000000     0.763520000000     0.113710000000     0          
H1       H      0.698200000000     0.769800000000     0.115800000000     0          
C6       C      0.842000000000     0.883420000000     0.090330000000     0          
C7       C      0.745100000000     0.787750000000     0.108000000000     0          
H2       H      0.738600000000     0.810600000000     0.106000000000     0          
O4       O      0.809340000000     0.891500000000     0.087800000000     0          
C10      C      0.800900000000     0.928400000000     0.079400000000     0          
O1       O      0.285920000000     0.326230000000     0.875430000000     0          
C3       C      0.236480000000     0.278890000000     0.886290000000     0          
H1       H      0.230200000000     0.301800000000     0.884200000000     0          
C6       C      0.116580000000     0.158000000000     0.909670000000     0          
C7       C      0.212250000000     0.254900000000     0.892000000000     0          
H2       H      0.189400000000     0.261400000000     0.894000000000     0          
O4       O      0.108500000000     0.190660000000     0.912200000000     0          
C10      C      0.071600000000     0.199100000000     0.920600000000     0          
O1       O      0.673770000000     0.035920000000     0.625430000000     0          
C3       C      0.721110000000     0.986480000000     0.636290000000     0          
H1       H      0.698200000000     0.980200000000     0.634200000000     0          
C6       C      0.842000000000     0.866580000000     0.659670000000     0          
C7       C      0.745100000000     0.962250000000     0.642000000000     0          
H2       H      0.738600000000     0.939400000000     0.644000000000     0          
O4       O      0.809340000000     0.858500000000     0.662200000000     0          
C10      C      0.800900000000     0.821600000000     0.670600000000     0          
O1       O      0.964080000000     0.423770000000     0.375430000000     0          
C3       C      0.013520000000     0.471110000000     0.386290000000     0          
H1       H      0.019800000000     0.448200000000     0.384200000000     0          
C6       C      0.133420000000     0.592000000000     0.409670000000     0          
C7       C      0.037750000000     0.495100000000     0.392000000000     0          
H2       H      0.060600000000     0.488600000000     0.394000000000     0          
O4       O      0.141500000000     0.559340000000     0.412200000000     0          
C10      C      0.178400000000     0.550900000000     0.420600000000     0          
O1       O      0.576230000000     0.714080000000     0.125430000000     0          
C3       C      0.528890000000     0.763520000000     0.136290000000     0          
H1       H      0.551800000000     0.769800000000     0.134200000000     0          
C6       C      0.408000000000     0.883420000000     0.159670000000     0          
C7       C      0.504900000000     0.787750000000     0.142000000000     0          
H2       H      0.511400000000     0.810600000000     0.144000000000     0          
O4       O      0.440660000000     0.891500000000     0.162200000000     0          
C10      C      0.449100000000     0.928400000000     0.170600000000     0          
O1       O      0.374570000000     0.285920000000     0.923770000000     0          
C3       C      0.363710000000     0.236480000000     0.971110000000     0          
H1       H      0.365800000000     0.230200000000     0.948200000000     0          
C6       C      0.340330000000     0.116580000000     0.092000000000     0          
C7       C      0.358000000000     0.212250000000     0.995100000000     0          
H2       H      0.356000000000     0.189400000000     0.988600000000     0          
O4       O      0.337800000000     0.108500000000     0.059340000000     0          
C10      C      0.329400000000     0.071600000000     0.050900000000     0          
O1       O      0.714080000000     0.124570000000     0.673770000000     0          
C3       C      0.763520000000     0.113710000000     0.721110000000     0          
H1       H      0.769800000000     0.115800000000     0.698200000000     0          
C6       C      0.883420000000     0.090330000000     0.842000000000     0          
C7       C      0.787750000000     0.108000000000     0.745100000000     0          
H2       H      0.810600000000     0.106000000000     0.738600000000     0          
O4       O      0.891500000000     0.087800000000     0.809340000000     0          
C10      C      0.928400000000     0.079400000000     0.800900000000     0          
O1       O      0.875430000000     0.464080000000     0.423770000000     0          
C3       C      0.886290000000     0.513520000000     0.471110000000     0          
H1       H      0.884200000000     0.519800000000     0.448200000000     0          
C6       C      0.909670000000     0.633420000000     0.592000000000     0          
C7       C      0.892000000000     0.537750000000     0.495100000000     0          
H2       H      0.894000000000     0.560600000000     0.488600000000     0          
O4       O      0.912200000000     0.641500000000     0.559340000000     0          
C10      C      0.920600000000     0.678400000000     0.550900000000     0          
O1       O      0.535920000000     0.625430000000     0.173770000000     0          
C3       C      0.486480000000     0.636290000000     0.221110000000     0          
H1       H      0.480200000000     0.634200000000     0.198200000000     0          
C6       C      0.366580000000     0.659670000000     0.342000000000     0          
C7       C      0.462250000000     0.642000000000     0.245100000000     0          
H2       H      0.439400000000     0.644000000000     0.238600000000     0          
O4       O      0.358500000000     0.662200000000     0.309340000000     0          
C10      C      0.321600000000     0.670600000000     0.300900000000     0          
O1       O      0.374570000000     0.464080000000     0.826230000000     0          
C3       C      0.363710000000     0.513520000000     0.778890000000     0          
H1       H      0.365800000000     0.519800000000     0.801800000000     0          
C6       C      0.340330000000     0.633420000000     0.658000000000     0          
C7       C      0.358000000000     0.537750000000     0.754900000000     0          
H2       H      0.356000000000     0.560600000000     0.761400000000     0          
O4       O      0.337800000000     0.641500000000     0.690660000000     0          
C10      C      0.329400000000     0.678400000000     0.699100000000     0          
O1       O      0.535920000000     0.124570000000     0.576230000000     0          
C3       C      0.486480000000     0.113710000000     0.528890000000     0          
H1       H      0.480200000000     0.115800000000     0.551800000000     0          
C6       C      0.366580000000     0.090330000000     0.408000000000     0          
C7       C      0.462250000000     0.108000000000     0.504900000000     0          
H2       H      0.439400000000     0.106000000000     0.511400000000     0          
O4       O      0.358500000000     0.087800000000     0.440660000000     0          
C10      C      0.321600000000     0.079400000000     0.449100000000     0          
O1       O      0.875430000000     0.285920000000     0.326230000000     0          
C3       C      0.886290000000     0.236480000000     0.278890000000     0          
H1       H      0.884200000000     0.230200000000     0.301800000000     0          
C6       C      0.909670000000     0.116580000000     0.158000000000     0          
C7       C      0.892000000000     0.212250000000     0.254900000000     0          
H2       H      0.894000000000     0.189400000000     0.261400000000     0          
O4       O      0.912200000000     0.108500000000     0.190660000000     0          
C10      C      0.920600000000     0.071600000000     0.199100000000     0          
O1       O      0.714080000000     0.625430000000     0.076230000000     0          
C3       C      0.763520000000     0.636290000000     0.028890000000     0          
H1       H      0.769800000000     0.634200000000     0.051800000000     0          
C6       C      0.883420000000     0.659670000000     0.908000000000     0          
C7       C      0.787750000000     0.642000000000     0.004900000000     0          
H2       H      0.810600000000     0.644000000000     0.011400000000     0          
O4       O      0.891500000000     0.662200000000     0.940660000000     0          
C10      C      0.928400000000     0.670600000000     0.949100000000     0          
O1       O      0.423770000000     0.374570000000     0.785920000000     0          
C3       C      0.471110000000     0.363710000000     0.736480000000     0          
H1       H      0.448200000000     0.365800000000     0.730200000000     0          
C6       C      0.592000000000     0.340330000000     0.616580000000     0          
C7       C      0.495100000000     0.358000000000     0.712250000000     0          
H2       H      0.488600000000     0.356000000000     0.689400000000     0          
O4       O      0.559340000000     0.337800000000     0.608500000000     0          
C10      C      0.550900000000     0.329400000000     0.571600000000     0          
O1       O      0.923770000000     0.875430000000     0.964080000000     0          
C3       C      0.971110000000     0.886290000000     0.013520000000     0          
H1       H      0.948200000000     0.884200000000     0.019800000000     0          
C6       C      0.092000000000     0.909670000000     0.133420000000     0          
C7       C      0.995100000000     0.892000000000     0.037750000000     0          
H2       H      0.988600000000     0.894000000000     0.060600000000     0          
O4       O      0.059340000000     0.912200000000     0.141500000000     0          
C10      C      0.050900000000     0.920600000000     0.178400000000     0          
O1       O      0.124570000000     0.673770000000     0.714080000000     0          
C3       C      0.113710000000     0.721110000000     0.763520000000     0          
H1       H      0.115800000000     0.698200000000     0.769800000000     0          
C6       C      0.090330000000     0.842000000000     0.883420000000     0          
C7       C      0.108000000000     0.745100000000     0.787750000000     0          
H2       H      0.106000000000     0.738600000000     0.810600000000     0          
O4       O      0.087800000000     0.809340000000     0.891500000000     0          
C10      C      0.079400000000     0.800900000000     0.928400000000     0          
O1       O      0.326230000000     0.874570000000     0.464080000000     0          
C3       C      0.278890000000     0.863710000000     0.513520000000     0          
H1       H      0.301800000000     0.865800000000     0.519800000000     0          
C6       C      0.158000000000     0.840330000000     0.633420000000     0          
C7       C      0.254900000000     0.858000000000     0.537750000000     0          
H2       H      0.261400000000     0.856000000000     0.560600000000     0          
O4       O      0.190660000000     0.837800000000     0.641500000000     0          
C10      C      0.199100000000     0.829400000000     0.678400000000     0          
O1       O      0.625430000000     0.076230000000     0.714080000000     0          
C3       C      0.636290000000     0.028890000000     0.763520000000     0          
H1       H      0.634200000000     0.051800000000     0.769800000000     0          
C6       C      0.659670000000     0.908000000000     0.883420000000     0          
C7       C      0.642000000000     0.004900000000     0.787750000000     0          
H2       H      0.644000000000     0.011400000000     0.810600000000     0          
O4       O      0.662200000000     0.940660000000     0.891500000000     0          
C10      C      0.670600000000     0.949100000000     0.928400000000     0          
O1       O      0.326230000000     0.375430000000     0.785920000000     0          
C3       C      0.278890000000     0.386290000000     0.736480000000     0          
H1       H      0.301800000000     0.384200000000     0.730200000000     0          
C6       C      0.158000000000     0.409670000000     0.616580000000     0          
C7       C      0.254900000000     0.392000000000     0.712250000000     0          
H2       H      0.261400000000     0.394000000000     0.689400000000     0          
O4       O      0.190660000000     0.412200000000     0.608500000000     0          
C10      C      0.199100000000     0.420600000000     0.571600000000     0          
O1       O      0.124570000000     0.576230000000     0.535920000000     0          
C3       C      0.113710000000     0.528890000000     0.486480000000     0          
H1       H      0.115800000000     0.551800000000     0.480200000000     0          
C6       C      0.090330000000     0.408000000000     0.366580000000     0          
C7       C      0.108000000000     0.504900000000     0.462250000000     0          
H2       H      0.106000000000     0.511400000000     0.439400000000     0          
O4       O      0.087800000000     0.440660000000     0.358500000000     0          
C10      C      0.079400000000     0.449100000000     0.321600000000     0          
O1       O      0.125430000000     0.173770000000     0.035920000000     0          
C3       C      0.136290000000     0.221110000000     0.986480000000     0          
H1       H      0.134200000000     0.198200000000     0.980200000000     0          
C6       C      0.159670000000     0.342000000000     0.866580000000     0          
C7       C      0.142000000000     0.245100000000     0.962250000000     0          
H2       H      0.144000000000     0.238600000000     0.939400000000     0          
O4       O      0.162200000000     0.309340000000     0.858500000000     0          
C10      C      0.170600000000     0.300900000000     0.821600000000     0          


