data_OXOLIX

_audit_creation_method RASPA-1.0
_audit_creation_date 2020-11-2
_audit_author_name 'Rocio Bueno-Perez'

_cell_length_a    39.8015
_cell_length_b    39.8015
_cell_length_c    39.8015
_cell_angle_alpha 90
_cell_angle_beta  90
_cell_angle_gamma 90
_cell_volume      63051.9

_symmetry_cell_setting          cubic
_symmetry_space_group_name_Hall 'P 1'
_symmetry_space_group_name_H-M  'P 1'
_symmetry_Int_Tables_number     1

_symmetry_equiv_pos_as_xyz 'x,y,z'

loop_
_atom_site_label
_atom_site_type_symbol
_atom_site_fract_x
_atom_site_fract_y
_atom_site_fract_z
_atom_site_charge
O2       O      0.214110000000     0.076180000000     0.125430000000     0          
C3       C      0.263540000000     0.028990000000     0.136200000000     0          
H1       H      0.269800000000     0.051900000000     0.133800000000     0          
C5       C      0.383990000000     0.908580000000     0.159300000000     0          
C7       C      0.287800000000     0.004640000000     0.142400000000     0          
H2       H      0.310700000000     0.011000000000     0.144300000000     0          
O4       O      0.392100000000     0.941800000000     0.160100000000     0          
Zr1      Zr     0.187190000000     0.125000000000     0.125000000000     0          
O1       O      0.154100000000     0.154100000000     0.095900000000     0          
O3       O      0.157200000000     0.092800000000     0.092800000000     0          
C1       C      0.203990000000     0.046010000000     0.127640000000     0          
C2       C      0.230270000000     0.019730000000     0.133600000000     0          
C4       C      0.350220000000     0.899780000000     0.158500000000     0          
C6       C      0.278860000000     0.971140000000     0.145700000000     0          
C8       C      0.304040000000     0.945960000000     0.150500000000     0          
C9       C      0.324990000000     0.925010000000     0.155200000000     0          
O2       O      0.923820000000     0.464110000000     0.375430000000     0          
C3       C      0.971010000000     0.513540000000     0.386200000000     0          
H1       H      0.948100000000     0.519800000000     0.383800000000     0          
C5       C      0.091420000000     0.633990000000     0.409300000000     0          
C7       C      0.995360000000     0.537800000000     0.392400000000     0          
H2       H      0.989000000000     0.560700000000     0.394300000000     0          
O4       O      0.058200000000     0.642100000000     0.410100000000     0          
Zr1      Zr     0.875000000000     0.437190000000     0.375000000000     0          
O1       O      0.845900000000     0.404100000000     0.345900000000     0          
O3       O      0.907200000000     0.407200000000     0.342800000000     0          
C1       C      0.953990000000     0.453990000000     0.377640000000     0          
C2       C      0.980270000000     0.480270000000     0.383600000000     0          
C4       C      0.100220000000     0.600220000000     0.408500000000     0          
C6       C      0.028860000000     0.528860000000     0.395700000000     0          
C8       C      0.054040000000     0.554040000000     0.400500000000     0          
C9       C      0.074990000000     0.574990000000     0.405200000000     0          
O2       O      0.535890000000     0.173820000000     0.625430000000     0          
C3       C      0.486460000000     0.221010000000     0.636200000000     0          
H1       H      0.480200000000     0.198100000000     0.633800000000     0          
C5       C      0.366010000000     0.341420000000     0.659300000000     0          
C7       C      0.462200000000     0.245360000000     0.642400000000     0          
H2       H      0.439300000000     0.239000000000     0.644300000000     0          
O4       O      0.357900000000     0.308200000000     0.660100000000     0          
Zr1      Zr     0.562810000000     0.125000000000     0.625000000000     0          
O1       O      0.595900000000     0.095900000000     0.595900000000     0          
O3       O      0.592800000000     0.157200000000     0.592800000000     0          
C1       C      0.546010000000     0.203990000000     0.627640000000     0          
C2       C      0.519730000000     0.230270000000     0.633600000000     0          
C4       C      0.399780000000     0.350220000000     0.658500000000     0          
C6       C      0.471140000000     0.278860000000     0.645700000000     0          
C8       C      0.445960000000     0.304040000000     0.650500000000     0          
C9       C      0.425010000000     0.324990000000     0.655200000000     0          
O2       O      0.826180000000     0.785890000000     0.875430000000     0          
C3       C      0.778990000000     0.736460000000     0.886200000000     0          
H1       H      0.801900000000     0.730200000000     0.883800000000     0          
C5       C      0.658580000000     0.616010000000     0.909300000000     0          
C7       C      0.754640000000     0.712200000000     0.892400000000     0          
H2       H      0.761000000000     0.689300000000     0.894300000000     0          
O4       O      0.691800000000     0.607900000000     0.910100000000     0          
Zr1      Zr     0.875000000000     0.812810000000     0.875000000000     0          
O1       O      0.904100000000     0.845900000000     0.845900000000     0          
O3       O      0.842800000000     0.842800000000     0.842800000000     0          
C1       C      0.796010000000     0.796010000000     0.877640000000     0          
C2       C      0.769730000000     0.769730000000     0.883600000000     0          
C4       C      0.649780000000     0.649780000000     0.908500000000     0          
C6       C      0.721140000000     0.721140000000     0.895700000000     0          
C8       C      0.695960000000     0.695960000000     0.900500000000     0          
C9       C      0.675010000000     0.675010000000     0.905200000000     0          
O2       O      0.214110000000     0.173820000000     0.124570000000     0          
C3       C      0.263540000000     0.221010000000     0.113800000000     0          
H1       H      0.269800000000     0.198100000000     0.116200000000     0          
C5       C      0.383990000000     0.341420000000     0.090700000000     0          
C7       C      0.287800000000     0.245360000000     0.107600000000     0          
H2       H      0.310700000000     0.239000000000     0.105700000000     0          
O4       O      0.392100000000     0.308200000000     0.089900000000     0          
O1       O      0.154100000000     0.095900000000     0.154100000000     0          
O3       O      0.157200000000     0.157200000000     0.157200000000     0          
C1       C      0.203990000000     0.203990000000     0.122360000000     0          
C2       C      0.230270000000     0.230270000000     0.116400000000     0          
C4       C      0.350220000000     0.350220000000     0.091500000000     0          
C6       C      0.278860000000     0.278860000000     0.104300000000     0          
C8       C      0.304040000000     0.304040000000     0.099500000000     0          
C9       C      0.324990000000     0.324990000000     0.094800000000     0          
O2       O      0.826180000000     0.464110000000     0.374570000000     0          
C3       C      0.778990000000     0.513540000000     0.363800000000     0          
H1       H      0.801900000000     0.519800000000     0.366200000000     0          
C5       C      0.658580000000     0.633990000000     0.340700000000     0          
C7       C      0.754640000000     0.537800000000     0.357600000000     0          
H2       H      0.761000000000     0.560700000000     0.355700000000     0          
O4       O      0.691800000000     0.642100000000     0.339900000000     0          
O1       O      0.904100000000     0.404100000000     0.404100000000     0          
O3       O      0.842800000000     0.407200000000     0.407200000000     0          
C1       C      0.796010000000     0.453990000000     0.372360000000     0          
C2       C      0.769730000000     0.480270000000     0.366400000000     0          
C4       C      0.649780000000     0.600220000000     0.341500000000     0          
C6       C      0.721140000000     0.528860000000     0.354300000000     0          
C8       C      0.695960000000     0.554040000000     0.349500000000     0          
C9       C      0.675010000000     0.574990000000     0.344800000000     0          
O2       O      0.535890000000     0.076180000000     0.624570000000     0          
C3       C      0.486460000000     0.028990000000     0.613800000000     0          
H1       H      0.480200000000     0.051900000000     0.616200000000     0          
C5       C      0.366010000000     0.908580000000     0.590700000000     0          
C7       C      0.462200000000     0.004640000000     0.607600000000     0          
H2       H      0.439300000000     0.011000000000     0.605700000000     0          
O4       O      0.357900000000     0.941800000000     0.589900000000     0          
O1       O      0.595900000000     0.154100000000     0.654100000000     0          
O3       O      0.592800000000     0.092800000000     0.657200000000     0          
C1       C      0.546010000000     0.046010000000     0.622360000000     0          
C2       C      0.519730000000     0.019730000000     0.616400000000     0          
C4       C      0.399780000000     0.899780000000     0.591500000000     0          
C6       C      0.471140000000     0.971140000000     0.604300000000     0          
C8       C      0.445960000000     0.945960000000     0.599500000000     0          
C9       C      0.425010000000     0.925010000000     0.594800000000     0          
O2       O      0.923820000000     0.785890000000     0.874570000000     0          
C3       C      0.971010000000     0.736460000000     0.863800000000     0          
H1       H      0.948100000000     0.730200000000     0.866200000000     0          
C5       C      0.091420000000     0.616010000000     0.840700000000     0          
C7       C      0.995360000000     0.712200000000     0.857600000000     0          
H2       H      0.989000000000     0.689300000000     0.855700000000     0          
O4       O      0.058200000000     0.607900000000     0.839900000000     0          
O1       O      0.845900000000     0.845900000000     0.904100000000     0          
O3       O      0.907200000000     0.842800000000     0.907200000000     0          
C1       C      0.953990000000     0.796010000000     0.872360000000     0          
C2       C      0.980270000000     0.769730000000     0.866400000000     0          
C4       C      0.100220000000     0.649780000000     0.841500000000     0          
C6       C      0.028860000000     0.721140000000     0.854300000000     0          
C8       C      0.054040000000     0.695960000000     0.849500000000     0          
C9       C      0.074990000000     0.675010000000     0.844800000000     0          
O2       O      0.125430000000     0.214110000000     0.076180000000     0          
C3       C      0.136200000000     0.263540000000     0.028990000000     0          
H1       H      0.133800000000     0.269800000000     0.051900000000     0          
C5       C      0.159300000000     0.383990000000     0.908580000000     0          
C7       C      0.142400000000     0.287800000000     0.004640000000     0          
H2       H      0.144300000000     0.310700000000     0.011000000000     0          
O4       O      0.160100000000     0.392100000000     0.941800000000     0          
Zr1      Zr     0.125000000000     0.187190000000     0.125000000000     0          
O1       O      0.095900000000     0.154100000000     0.154100000000     0          
O3       O      0.092800000000     0.157200000000     0.092800000000     0          
C1       C      0.127640000000     0.203990000000     0.046010000000     0          
C2       C      0.133600000000     0.230270000000     0.019730000000     0          
C4       C      0.158500000000     0.350220000000     0.899780000000     0          
C6       C      0.145700000000     0.278860000000     0.971140000000     0          
C8       C      0.150500000000     0.304040000000     0.945960000000     0          
C9       C      0.155200000000     0.324990000000     0.925010000000     0          
O2       O      0.785890000000     0.375430000000     0.326180000000     0          
C3       C      0.736460000000     0.386200000000     0.278990000000     0          
H1       H      0.730200000000     0.383800000000     0.301900000000     0          
C5       C      0.616010000000     0.409300000000     0.158580000000     0          
C7       C      0.712200000000     0.392400000000     0.254640000000     0          
H2       H      0.689300000000     0.394300000000     0.261000000000     0          
O4       O      0.607900000000     0.410100000000     0.191800000000     0          
Zr1      Zr     0.812810000000     0.375000000000     0.375000000000     0          
O1       O      0.845900000000     0.345900000000     0.404100000000     0          
O3       O      0.842800000000     0.342800000000     0.342800000000     0          
C1       C      0.796010000000     0.377640000000     0.296010000000     0          
C2       C      0.769730000000     0.383600000000     0.269730000000     0          
C4       C      0.649780000000     0.408500000000     0.149780000000     0          
C6       C      0.721140000000     0.395700000000     0.221140000000     0          
C8       C      0.695960000000     0.400500000000     0.195960000000     0          
C9       C      0.675010000000     0.405200000000     0.175010000000     0          
O2       O      0.624570000000     0.035890000000     0.576180000000     0          
C3       C      0.613800000000     0.986460000000     0.528990000000     0          
H1       H      0.616200000000     0.980200000000     0.551900000000     0          
C5       C      0.590700000000     0.866010000000     0.408580000000     0          
C7       C      0.607600000000     0.962200000000     0.504640000000     0          
H2       H      0.605700000000     0.939300000000     0.511000000000     0          
O4       O      0.589900000000     0.857900000000     0.441800000000     0          
Zr1      Zr     0.625000000000     0.062810000000     0.625000000000     0          
O1       O      0.654100000000     0.095900000000     0.654100000000     0          
O3       O      0.657200000000     0.092800000000     0.592800000000     0          
C1       C      0.622360000000     0.046010000000     0.546010000000     0          
C2       C      0.616400000000     0.019730000000     0.519730000000     0          
C4       C      0.591500000000     0.899780000000     0.399780000000     0          
C6       C      0.604300000000     0.971140000000     0.471140000000     0          
C8       C      0.599500000000     0.945960000000     0.445960000000     0          
C9       C      0.594800000000     0.925010000000     0.425010000000     0          
O2       O      0.964110000000     0.874570000000     0.826180000000     0          
C3       C      0.013540000000     0.863800000000     0.778990000000     0          
H1       H      0.019800000000     0.866200000000     0.801900000000     0          
C5       C      0.133990000000     0.840700000000     0.658580000000     0          
C7       C      0.037800000000     0.857600000000     0.754640000000     0          
H2       H      0.060700000000     0.855700000000     0.761000000000     0          
O4       O      0.142100000000     0.839900000000     0.691800000000     0          
Zr1      Zr     0.937190000000     0.875000000000     0.875000000000     0          
O1       O      0.904100000000     0.904100000000     0.904100000000     0          
O3       O      0.907200000000     0.907200000000     0.842800000000     0          
C1       C      0.953990000000     0.872360000000     0.796010000000     0          
C2       C      0.980270000000     0.866400000000     0.769730000000     0          
C4       C      0.100220000000     0.841500000000     0.649780000000     0          
C6       C      0.028860000000     0.854300000000     0.721140000000     0          
C8       C      0.054040000000     0.849500000000     0.695960000000     0          
C9       C      0.074990000000     0.844800000000     0.675010000000     0          
O2       O      0.125430000000     0.035890000000     0.173820000000     0          
C3       C      0.136200000000     0.986460000000     0.221010000000     0          
H1       H      0.133800000000     0.980200000000     0.198100000000     0          
C5       C      0.159300000000     0.866010000000     0.341420000000     0          
C7       C      0.142400000000     0.962200000000     0.245360000000     0          
H2       H      0.144300000000     0.939300000000     0.239000000000     0          
O4       O      0.160100000000     0.857900000000     0.308200000000     0          
Zr1      Zr     0.125000000000     0.062810000000     0.125000000000     0          
O1       O      0.095900000000     0.095900000000     0.095900000000     0          
O3       O      0.092800000000     0.092800000000     0.157200000000     0          
C1       C      0.127640000000     0.046010000000     0.203990000000     0          
C2       C      0.133600000000     0.019730000000     0.230270000000     0          
C4       C      0.158500000000     0.899780000000     0.350220000000     0          
C6       C      0.145700000000     0.971140000000     0.278860000000     0          
C8       C      0.150500000000     0.945960000000     0.304040000000     0          
C9       C      0.155200000000     0.925010000000     0.324990000000     0          
O2       O      0.964110000000     0.375430000000     0.423820000000     0          
C3       C      0.013540000000     0.386200000000     0.471010000000     0          
H1       H      0.019800000000     0.383800000000     0.448100000000     0          
C5       C      0.133990000000     0.409300000000     0.591420000000     0          
C7       C      0.037800000000     0.392400000000     0.495360000000     0          
H2       H      0.060700000000     0.394300000000     0.489000000000     0          
O4       O      0.142100000000     0.410100000000     0.558200000000     0          
Zr1      Zr     0.937190000000     0.375000000000     0.375000000000     0          
O1       O      0.904100000000     0.345900000000     0.345900000000     0          
O3       O      0.907200000000     0.342800000000     0.407200000000     0          
C1       C      0.953990000000     0.377640000000     0.453990000000     0          
C2       C      0.980270000000     0.383600000000     0.480270000000     0          
C4       C      0.100220000000     0.408500000000     0.600220000000     0          
C6       C      0.028860000000     0.395700000000     0.528860000000     0          
C8       C      0.054040000000     0.400500000000     0.554040000000     0          
C9       C      0.074990000000     0.405200000000     0.574990000000     0          
O2       O      0.624570000000     0.214110000000     0.673820000000     0          
C3       C      0.613800000000     0.263540000000     0.721010000000     0          
H1       H      0.616200000000     0.269800000000     0.698100000000     0          
C5       C      0.590700000000     0.383990000000     0.841420000000     0          
C7       C      0.607600000000     0.287800000000     0.745360000000     0          
H2       H      0.605700000000     0.310700000000     0.739000000000     0          
O4       O      0.589900000000     0.392100000000     0.808200000000     0          
Zr1      Zr     0.625000000000     0.187190000000     0.625000000000     0          
O1       O      0.654100000000     0.154100000000     0.595900000000     0          
O3       O      0.657200000000     0.157200000000     0.657200000000     0          
C1       C      0.622360000000     0.203990000000     0.703990000000     0          
C2       C      0.616400000000     0.230270000000     0.730270000000     0          
C4       C      0.591500000000     0.350220000000     0.850220000000     0          
C6       C      0.604300000000     0.278860000000     0.778860000000     0          
C8       C      0.599500000000     0.304040000000     0.804040000000     0          
C9       C      0.594800000000     0.324990000000     0.824990000000     0          
O2       O      0.785890000000     0.874570000000     0.923820000000     0          
C3       C      0.736460000000     0.863800000000     0.971010000000     0          
H1       H      0.730200000000     0.866200000000     0.948100000000     0          
C5       C      0.616010000000     0.840700000000     0.091420000000     0          
C7       C      0.712200000000     0.857600000000     0.995360000000     0          
H2       H      0.689300000000     0.855700000000     0.989000000000     0          
O4       O      0.607900000000     0.839900000000     0.058200000000     0          
Zr1      Zr     0.812810000000     0.875000000000     0.875000000000     0          
O1       O      0.845900000000     0.904100000000     0.845900000000     0          
O3       O      0.842800000000     0.907200000000     0.907200000000     0          
C1       C      0.796010000000     0.872360000000     0.953990000000     0          
C2       C      0.769730000000     0.866400000000     0.980270000000     0          
C4       C      0.649780000000     0.841500000000     0.100220000000     0          
C6       C      0.721140000000     0.854300000000     0.028860000000     0          
C8       C      0.695960000000     0.849500000000     0.054040000000     0          
C9       C      0.675010000000     0.844800000000     0.074990000000     0          
O2       O      0.076180000000     0.125430000000     0.214110000000     0          
C3       C      0.028990000000     0.136200000000     0.263540000000     0          
H1       H      0.051900000000     0.133800000000     0.269800000000     0          
C5       C      0.908580000000     0.159300000000     0.383990000000     0          
C7       C      0.004640000000     0.142400000000     0.287800000000     0          
H2       H      0.011000000000     0.144300000000     0.310700000000     0          
O4       O      0.941800000000     0.160100000000     0.392100000000     0          
Zr1      Zr     0.125000000000     0.125000000000     0.187190000000     0          
C1       C      0.046010000000     0.127640000000     0.203990000000     0          
C2       C      0.019730000000     0.133600000000     0.230270000000     0          
C4       C      0.899780000000     0.158500000000     0.350220000000     0          
C6       C      0.971140000000     0.145700000000     0.278860000000     0          
C8       C      0.945960000000     0.150500000000     0.304040000000     0          
C9       C      0.925010000000     0.155200000000     0.324990000000     0          
O2       O      0.576180000000     0.624570000000     0.035890000000     0          
C3       C      0.528990000000     0.613800000000     0.986460000000     0          
H1       H      0.551900000000     0.616200000000     0.980200000000     0          
C5       C      0.408580000000     0.590700000000     0.866010000000     0          
C7       C      0.504640000000     0.607600000000     0.962200000000     0          
H2       H      0.511000000000     0.605700000000     0.939300000000     0          
O4       O      0.441800000000     0.589900000000     0.857900000000     0          
Zr1      Zr     0.625000000000     0.625000000000     0.062810000000     0          
O1       O      0.654100000000     0.654100000000     0.095900000000     0          
O3       O      0.592800000000     0.657200000000     0.092800000000     0          
C1       C      0.546010000000     0.622360000000     0.046010000000     0          
C2       C      0.519730000000     0.616400000000     0.019730000000     0          
C4       C      0.399780000000     0.591500000000     0.899780000000     0          
C6       C      0.471140000000     0.604300000000     0.971140000000     0          
C8       C      0.445960000000     0.599500000000     0.945960000000     0          
C9       C      0.425010000000     0.594800000000     0.925010000000     0          
O2       O      0.375430000000     0.826180000000     0.285890000000     0          
C3       C      0.386200000000     0.778990000000     0.236460000000     0          
H1       H      0.383800000000     0.801900000000     0.230200000000     0          
C5       C      0.409300000000     0.658580000000     0.116010000000     0          
C7       C      0.392400000000     0.754640000000     0.212200000000     0          
H2       H      0.394300000000     0.761000000000     0.189300000000     0          
O4       O      0.410100000000     0.691800000000     0.107900000000     0          
Zr1      Zr     0.375000000000     0.875000000000     0.312810000000     0          
O1       O      0.345900000000     0.904100000000     0.345900000000     0          
O3       O      0.342800000000     0.842800000000     0.342800000000     0          
C1       C      0.377640000000     0.796010000000     0.296010000000     0          
C2       C      0.383600000000     0.769730000000     0.269730000000     0          
C4       C      0.408500000000     0.649780000000     0.149780000000     0          
C6       C      0.395700000000     0.721140000000     0.221140000000     0          
C8       C      0.400500000000     0.695960000000     0.195960000000     0          
C9       C      0.405200000000     0.675010000000     0.175010000000     0          
O2       O      0.173820000000     0.625430000000     0.535890000000     0          
C3       C      0.221010000000     0.636200000000     0.486460000000     0          
H1       H      0.198100000000     0.633800000000     0.480200000000     0          
C5       C      0.341420000000     0.659300000000     0.366010000000     0          
C7       C      0.245360000000     0.642400000000     0.462200000000     0          
H2       H      0.239000000000     0.644300000000     0.439300000000     0          
O4       O      0.308200000000     0.660100000000     0.357900000000     0          
Zr1      Zr     0.125000000000     0.625000000000     0.562810000000     0          
O1       O      0.095900000000     0.595900000000     0.595900000000     0          
O3       O      0.157200000000     0.592800000000     0.592800000000     0          
C1       C      0.203990000000     0.627640000000     0.546010000000     0          
C2       C      0.230270000000     0.633600000000     0.519730000000     0          
C4       C      0.350220000000     0.658500000000     0.399780000000     0          
C6       C      0.278860000000     0.645700000000     0.471140000000     0          
C8       C      0.304040000000     0.650500000000     0.445960000000     0          
C9       C      0.324990000000     0.655200000000     0.425010000000     0          
O2       O      0.874570000000     0.423820000000     0.285890000000     0          
C3       C      0.863800000000     0.471010000000     0.236460000000     0          
H1       H      0.866200000000     0.448100000000     0.230200000000     0          
C5       C      0.840700000000     0.591420000000     0.116010000000     0          
C7       C      0.857600000000     0.495360000000     0.212200000000     0          
H2       H      0.855700000000     0.489000000000     0.189300000000     0          
O4       O      0.839900000000     0.558200000000     0.107900000000     0          
Zr1      Zr     0.875000000000     0.375000000000     0.312810000000     0          
C1       C      0.872360000000     0.453990000000     0.296010000000     0          
C2       C      0.866400000000     0.480270000000     0.269730000000     0          
C4       C      0.841500000000     0.600220000000     0.149780000000     0          
C6       C      0.854300000000     0.528860000000     0.221140000000     0          
C8       C      0.849500000000     0.554040000000     0.195960000000     0          
C9       C      0.844800000000     0.574990000000     0.175010000000     0          
O2       O      0.173820000000     0.124570000000     0.214110000000     0          
C3       C      0.221010000000     0.113800000000     0.263540000000     0          
H1       H      0.198100000000     0.116200000000     0.269800000000     0          
C5       C      0.341420000000     0.090700000000     0.383990000000     0          
C7       C      0.245360000000     0.107600000000     0.287800000000     0          
H2       H      0.239000000000     0.105700000000     0.310700000000     0          
O4       O      0.308200000000     0.089900000000     0.392100000000     0          
C1       C      0.203990000000     0.122360000000     0.203990000000     0          
C2       C      0.230270000000     0.116400000000     0.230270000000     0          
C4       C      0.350220000000     0.091500000000     0.350220000000     0          
C6       C      0.278860000000     0.104300000000     0.278860000000     0          
C8       C      0.304040000000     0.099500000000     0.304040000000     0          
C9       C      0.324990000000     0.094800000000     0.324990000000     0          
O2       O      0.375430000000     0.923820000000     0.464110000000     0          
C3       C      0.386200000000     0.971010000000     0.513540000000     0          
H1       H      0.383800000000     0.948100000000     0.519800000000     0          
C5       C      0.409300000000     0.091420000000     0.633990000000     0          
C7       C      0.392400000000     0.995360000000     0.537800000000     0          
H2       H      0.394300000000     0.989000000000     0.560700000000     0          
O4       O      0.410100000000     0.058200000000     0.642100000000     0          
Zr1      Zr     0.375000000000     0.875000000000     0.437190000000     0          
O1       O      0.345900000000     0.845900000000     0.404100000000     0          
O3       O      0.342800000000     0.907200000000     0.407200000000     0          
C1       C      0.377640000000     0.953990000000     0.453990000000     0          
C2       C      0.383600000000     0.980270000000     0.480270000000     0          
C4       C      0.408500000000     0.100220000000     0.600220000000     0          
C6       C      0.395700000000     0.028860000000     0.528860000000     0          
C8       C      0.400500000000     0.054040000000     0.554040000000     0          
C9       C      0.405200000000     0.074990000000     0.574990000000     0          
O2       O      0.374570000000     0.326180000000     0.964110000000     0          
C3       C      0.363800000000     0.278990000000     0.013540000000     0          
H1       H      0.366200000000     0.301900000000     0.019800000000     0          
C5       C      0.340700000000     0.158580000000     0.133990000000     0          
C7       C      0.357600000000     0.254640000000     0.037800000000     0          
H2       H      0.355700000000     0.261000000000     0.060700000000     0          
O4       O      0.339900000000     0.191800000000     0.142100000000     0          
Zr1      Zr     0.375000000000     0.375000000000     0.937190000000     0          
O1       O      0.404100000000     0.404100000000     0.904100000000     0          
O3       O      0.407200000000     0.342800000000     0.907200000000     0          
C1       C      0.372360000000     0.296010000000     0.953990000000     0          
C2       C      0.366400000000     0.269730000000     0.980270000000     0          
C4       C      0.341500000000     0.149780000000     0.100220000000     0          
C6       C      0.354300000000     0.221140000000     0.028860000000     0          
C8       C      0.349500000000     0.195960000000     0.054040000000     0          
C9       C      0.344800000000     0.175010000000     0.074990000000     0          
O2       O      0.785890000000     0.923820000000     0.874570000000     0          
C3       C      0.736460000000     0.971010000000     0.863800000000     0          
H1       H      0.730200000000     0.948100000000     0.866200000000     0          
C5       C      0.616010000000     0.091420000000     0.840700000000     0          
C7       C      0.712200000000     0.995360000000     0.857600000000     0          
H2       H      0.689300000000     0.989000000000     0.855700000000     0          
O4       O      0.607900000000     0.058200000000     0.839900000000     0          
C1       C      0.796010000000     0.953990000000     0.872360000000     0          
C2       C      0.769730000000     0.980270000000     0.866400000000     0          
C4       C      0.649780000000     0.100220000000     0.841500000000     0          
C6       C      0.721140000000     0.028860000000     0.854300000000     0          
C8       C      0.695960000000     0.054040000000     0.849500000000     0          
C9       C      0.675010000000     0.074990000000     0.844800000000     0          
O2       O      0.076180000000     0.535890000000     0.624570000000     0          
C3       C      0.028990000000     0.486460000000     0.613800000000     0          
H1       H      0.051900000000     0.480200000000     0.616200000000     0          
C5       C      0.908580000000     0.366010000000     0.590700000000     0          
C7       C      0.004640000000     0.462200000000     0.607600000000     0          
H2       H      0.011000000000     0.439300000000     0.605700000000     0          
O4       O      0.941800000000     0.357900000000     0.589900000000     0          
Zr1      Zr     0.125000000000     0.562810000000     0.625000000000     0          
O1       O      0.154100000000     0.595900000000     0.654100000000     0          
O3       O      0.092800000000     0.592800000000     0.657200000000     0          
C1       C      0.046010000000     0.546010000000     0.622360000000     0          
C2       C      0.019730000000     0.519730000000     0.616400000000     0          
C4       C      0.899780000000     0.399780000000     0.591500000000     0          
C6       C      0.971140000000     0.471140000000     0.604300000000     0          
C8       C      0.945960000000     0.445960000000     0.599500000000     0          
C9       C      0.925010000000     0.425010000000     0.594800000000     0          
O2       O      0.464110000000     0.826180000000     0.374570000000     0          
C3       C      0.513540000000     0.778990000000     0.363800000000     0          
H1       H      0.519800000000     0.801900000000     0.366200000000     0          
C5       C      0.633990000000     0.658580000000     0.340700000000     0          
C7       C      0.537800000000     0.754640000000     0.357600000000     0          
H2       H      0.560700000000     0.761000000000     0.355700000000     0          
O4       O      0.642100000000     0.691800000000     0.339900000000     0          
Zr1      Zr     0.437190000000     0.875000000000     0.375000000000     0          
O1       O      0.404100000000     0.904100000000     0.404100000000     0          
O3       O      0.407200000000     0.842800000000     0.407200000000     0          
C1       C      0.453990000000     0.796010000000     0.372360000000     0          
C2       C      0.480270000000     0.769730000000     0.366400000000     0          
C4       C      0.600220000000     0.649780000000     0.341500000000     0          
C6       C      0.528860000000     0.721140000000     0.354300000000     0          
C8       C      0.554040000000     0.695960000000     0.349500000000     0          
C9       C      0.574990000000     0.675010000000     0.344800000000     0          
O2       O      0.173820000000     0.214110000000     0.124570000000     0          
C3       C      0.221010000000     0.263540000000     0.113800000000     0          
H1       H      0.198100000000     0.269800000000     0.116200000000     0          
C5       C      0.341420000000     0.383990000000     0.090700000000     0          
C7       C      0.245360000000     0.287800000000     0.107600000000     0          
H2       H      0.239000000000     0.310700000000     0.105700000000     0          
O4       O      0.308200000000     0.392100000000     0.089900000000     0          
O2       O      0.785890000000     0.826180000000     0.875430000000     0          
C3       C      0.736460000000     0.778990000000     0.886200000000     0          
H1       H      0.730200000000     0.801900000000     0.883800000000     0          
C5       C      0.616010000000     0.658580000000     0.909300000000     0          
C7       C      0.712200000000     0.754640000000     0.892400000000     0          
H2       H      0.689300000000     0.761000000000     0.894300000000     0          
O4       O      0.607900000000     0.691800000000     0.910100000000     0          
O2       O      0.173820000000     0.535890000000     0.625430000000     0          
C3       C      0.221010000000     0.486460000000     0.636200000000     0          
H1       H      0.198100000000     0.480200000000     0.633800000000     0          
C5       C      0.341420000000     0.366010000000     0.659300000000     0          
C7       C      0.245360000000     0.462200000000     0.642400000000     0          
H2       H      0.239000000000     0.439300000000     0.644300000000     0          
O4       O      0.308200000000     0.357900000000     0.660100000000     0          
C1       C      0.203990000000     0.546010000000     0.627640000000     0          
C2       C      0.230270000000     0.519730000000     0.633600000000     0          
C4       C      0.350220000000     0.399780000000     0.658500000000     0          
C6       C      0.278860000000     0.471140000000     0.645700000000     0          
C8       C      0.304040000000     0.445960000000     0.650500000000     0          
C9       C      0.324990000000     0.425010000000     0.655200000000     0          
O2       O      0.464110000000     0.923820000000     0.375430000000     0          
C3       C      0.513540000000     0.971010000000     0.386200000000     0          
H1       H      0.519800000000     0.948100000000     0.383800000000     0          
C5       C      0.633990000000     0.091420000000     0.409300000000     0          
C7       C      0.537800000000     0.995360000000     0.392400000000     0          
H2       H      0.560700000000     0.989000000000     0.394300000000     0          
O4       O      0.642100000000     0.058200000000     0.410100000000     0          
O1       O      0.404100000000     0.845900000000     0.345900000000     0          
O3       O      0.407200000000     0.907200000000     0.342800000000     0          
C1       C      0.453990000000     0.953990000000     0.377640000000     0          
C2       C      0.480270000000     0.980270000000     0.383600000000     0          
C4       C      0.600220000000     0.100220000000     0.408500000000     0          
C6       C      0.528860000000     0.028860000000     0.395700000000     0          
C8       C      0.554040000000     0.054040000000     0.400500000000     0          
C9       C      0.574990000000     0.074990000000     0.405200000000     0          
O2       O      0.076180000000     0.214110000000     0.125430000000     0          
C3       C      0.028990000000     0.263540000000     0.136200000000     0          
H1       H      0.051900000000     0.269800000000     0.133800000000     0          
C5       C      0.908580000000     0.383990000000     0.159300000000     0          
C7       C      0.004640000000     0.287800000000     0.142400000000     0          
H2       H      0.011000000000     0.310700000000     0.144300000000     0          
O4       O      0.941800000000     0.392100000000     0.160100000000     0          
C1       C      0.046010000000     0.203990000000     0.127640000000     0          
C2       C      0.019730000000     0.230270000000     0.133600000000     0          
C4       C      0.899780000000     0.350220000000     0.158500000000     0          
C6       C      0.971140000000     0.278860000000     0.145700000000     0          
C8       C      0.945960000000     0.304040000000     0.150500000000     0          
C9       C      0.925010000000     0.324990000000     0.155200000000     0          
O2       O      0.874570000000     0.785890000000     0.923820000000     0          
C3       C      0.863800000000     0.736460000000     0.971010000000     0          
H1       H      0.866200000000     0.730200000000     0.948100000000     0          
C5       C      0.840700000000     0.616010000000     0.091420000000     0          
C7       C      0.857600000000     0.712200000000     0.995360000000     0          
H2       H      0.855700000000     0.689300000000     0.989000000000     0          
O4       O      0.839900000000     0.607900000000     0.058200000000     0          
C1       C      0.872360000000     0.796010000000     0.953990000000     0          
C2       C      0.866400000000     0.769730000000     0.980270000000     0          
C4       C      0.841500000000     0.649780000000     0.100220000000     0          
C6       C      0.854300000000     0.721140000000     0.028860000000     0          
C8       C      0.849500000000     0.695960000000     0.054040000000     0          
C9       C      0.844800000000     0.675010000000     0.074990000000     0          
O2       O      0.214110000000     0.624570000000     0.673820000000     0          
C3       C      0.263540000000     0.613800000000     0.721010000000     0          
H1       H      0.269800000000     0.616200000000     0.698100000000     0          
C5       C      0.383990000000     0.590700000000     0.841420000000     0          
C7       C      0.287800000000     0.607600000000     0.745360000000     0          
H2       H      0.310700000000     0.605700000000     0.739000000000     0          
O4       O      0.392100000000     0.589900000000     0.808200000000     0          
Zr1      Zr     0.187190000000     0.625000000000     0.625000000000     0          
O1       O      0.154100000000     0.654100000000     0.595900000000     0          
O3       O      0.157200000000     0.657200000000     0.657200000000     0          
C1       C      0.203990000000     0.622360000000     0.703990000000     0          
C2       C      0.230270000000     0.616400000000     0.730270000000     0          
C4       C      0.350220000000     0.591500000000     0.850220000000     0          
C6       C      0.278860000000     0.604300000000     0.778860000000     0          
C8       C      0.304040000000     0.599500000000     0.804040000000     0          
C9       C      0.324990000000     0.594800000000     0.824990000000     0          
O2       O      0.375430000000     0.964110000000     0.423820000000     0          
C3       C      0.386200000000     0.013540000000     0.471010000000     0          
H1       H      0.383800000000     0.019800000000     0.448100000000     0          
C5       C      0.409300000000     0.133990000000     0.591420000000     0          
C7       C      0.392400000000     0.037800000000     0.495360000000     0          
H2       H      0.394300000000     0.060700000000     0.489000000000     0          
O4       O      0.410100000000     0.142100000000     0.558200000000     0          
Zr1      Zr     0.375000000000     0.937190000000     0.375000000000     0          
O2       O      0.035890000000     0.125430000000     0.173820000000     0          
C3       C      0.986460000000     0.136200000000     0.221010000000     0          
H1       H      0.980200000000     0.133800000000     0.198100000000     0          
C5       C      0.866010000000     0.159300000000     0.341420000000     0          
C7       C      0.962200000000     0.142400000000     0.245360000000     0          
H2       H      0.939300000000     0.144300000000     0.239000000000     0          
O4       O      0.857900000000     0.160100000000     0.308200000000     0          
Zr1      Zr     0.062810000000     0.125000000000     0.125000000000     0          
O2       O      0.874570000000     0.964110000000     0.826180000000     0          
C3       C      0.863800000000     0.013540000000     0.778990000000     0          
H1       H      0.866200000000     0.019800000000     0.801900000000     0          
C5       C      0.840700000000     0.133990000000     0.658580000000     0          
C7       C      0.857600000000     0.037800000000     0.754640000000     0          
H2       H      0.855700000000     0.060700000000     0.761000000000     0          
O4       O      0.839900000000     0.142100000000     0.691800000000     0          
Zr1      Zr     0.875000000000     0.937190000000     0.875000000000     0          
C1       C      0.872360000000     0.953990000000     0.796010000000     0          
C2       C      0.866400000000     0.980270000000     0.769730000000     0          
C4       C      0.841500000000     0.100220000000     0.649780000000     0          
C6       C      0.854300000000     0.028860000000     0.721140000000     0          
C8       C      0.849500000000     0.054040000000     0.695960000000     0          
C9       C      0.844800000000     0.074990000000     0.675010000000     0          
O2       O      0.035890000000     0.624570000000     0.576180000000     0          
C3       C      0.986460000000     0.613800000000     0.528990000000     0          
H1       H      0.980200000000     0.616200000000     0.551900000000     0          
C5       C      0.866010000000     0.590700000000     0.408580000000     0          
C7       C      0.962200000000     0.607600000000     0.504640000000     0          
H2       H      0.939300000000     0.605700000000     0.511000000000     0          
O4       O      0.857900000000     0.589900000000     0.441800000000     0          
Zr1      Zr     0.062810000000     0.625000000000     0.625000000000     0          
O1       O      0.095900000000     0.654100000000     0.654100000000     0          
O3       O      0.092800000000     0.657200000000     0.592800000000     0          
C1       C      0.046010000000     0.622360000000     0.546010000000     0          
C2       C      0.019730000000     0.616400000000     0.519730000000     0          
C4       C      0.899780000000     0.591500000000     0.399780000000     0          
C6       C      0.971140000000     0.604300000000     0.471140000000     0          
C8       C      0.945960000000     0.599500000000     0.445960000000     0          
C9       C      0.925010000000     0.594800000000     0.425010000000     0          
O2       O      0.375430000000     0.785890000000     0.326180000000     0          
C3       C      0.386200000000     0.736460000000     0.278990000000     0          
H1       H      0.383800000000     0.730200000000     0.301900000000     0          
C5       C      0.409300000000     0.616010000000     0.158580000000     0          
C7       C      0.392400000000     0.712200000000     0.254640000000     0          
H2       H      0.394300000000     0.689300000000     0.261000000000     0          
O4       O      0.410100000000     0.607900000000     0.191800000000     0          
Zr1      Zr     0.375000000000     0.812810000000     0.375000000000     0          
O2       O      0.214110000000     0.125430000000     0.076180000000     0          
C3       C      0.263540000000     0.136200000000     0.028990000000     0          
H1       H      0.269800000000     0.133800000000     0.051900000000     0          
C5       C      0.383990000000     0.159300000000     0.908580000000     0          
C7       C      0.287800000000     0.142400000000     0.004640000000     0          
H2       H      0.310700000000     0.144300000000     0.011000000000     0          
O4       O      0.392100000000     0.160100000000     0.941800000000     0          
C1       C      0.203990000000     0.127640000000     0.046010000000     0          
C2       C      0.230270000000     0.133600000000     0.019730000000     0          
C4       C      0.350220000000     0.158500000000     0.899780000000     0          
C6       C      0.278860000000     0.145700000000     0.971140000000     0          
C8       C      0.304040000000     0.150500000000     0.945960000000     0          
C9       C      0.324990000000     0.155200000000     0.925010000000     0          
O2       O      0.923820000000     0.874570000000     0.785890000000     0          
C3       C      0.971010000000     0.863800000000     0.736460000000     0          
H1       H      0.948100000000     0.866200000000     0.730200000000     0          
C5       C      0.091420000000     0.840700000000     0.616010000000     0          
C7       C      0.995360000000     0.857600000000     0.712200000000     0          
H2       H      0.989000000000     0.855700000000     0.689300000000     0          
O4       O      0.058200000000     0.839900000000     0.607900000000     0          
Zr1      Zr     0.875000000000     0.875000000000     0.812810000000     0          
O2       O      0.423820000000     0.375430000000     0.964110000000     0          
C3       C      0.471010000000     0.386200000000     0.013540000000     0          
H1       H      0.448100000000     0.383800000000     0.019800000000     0          
C5       C      0.591420000000     0.409300000000     0.133990000000     0          
C7       C      0.495360000000     0.392400000000     0.037800000000     0          
H2       H      0.489000000000     0.394300000000     0.060700000000     0          
O4       O      0.558200000000     0.410100000000     0.142100000000     0          
O1       O      0.345900000000     0.345900000000     0.904100000000     0          
C1       C      0.453990000000     0.377640000000     0.953990000000     0          
C2       C      0.480270000000     0.383600000000     0.980270000000     0          
C4       C      0.600220000000     0.408500000000     0.100220000000     0          
C6       C      0.528860000000     0.395700000000     0.028860000000     0          
C8       C      0.554040000000     0.400500000000     0.054040000000     0          
C9       C      0.574990000000     0.405200000000     0.074990000000     0          
O2       O      0.624570000000     0.173820000000     0.714110000000     0          
C3       C      0.613800000000     0.221010000000     0.763540000000     0          
H1       H      0.616200000000     0.198100000000     0.769800000000     0          
C5       C      0.590700000000     0.341420000000     0.883990000000     0          
C7       C      0.607600000000     0.245360000000     0.787800000000     0          
H2       H      0.605700000000     0.239000000000     0.810700000000     0          
O4       O      0.589900000000     0.308200000000     0.892100000000     0          
Zr1      Zr     0.625000000000     0.125000000000     0.687190000000     0          
O2       O      0.826180000000     0.374570000000     0.464110000000     0          
C3       C      0.778990000000     0.363800000000     0.513540000000     0          
H1       H      0.801900000000     0.366200000000     0.519800000000     0          
C5       C      0.658580000000     0.340700000000     0.633990000000     0          
C7       C      0.754640000000     0.357600000000     0.537800000000     0          
H2       H      0.761000000000     0.355700000000     0.560700000000     0          
O4       O      0.691800000000     0.339900000000     0.642100000000     0          
Zr1      Zr     0.875000000000     0.375000000000     0.437190000000     0          
C1       C      0.796010000000     0.372360000000     0.453990000000     0          
C2       C      0.769730000000     0.366400000000     0.480270000000     0          
C4       C      0.649780000000     0.341500000000     0.600220000000     0          
C6       C      0.721140000000     0.354300000000     0.528860000000     0          
C8       C      0.695960000000     0.349500000000     0.554040000000     0          
C9       C      0.675010000000     0.344800000000     0.574990000000     0          
O2       O      0.125430000000     0.576180000000     0.714110000000     0          
C3       C      0.136200000000     0.528990000000     0.763540000000     0          
H1       H      0.133800000000     0.551900000000     0.769800000000     0          
C5       C      0.159300000000     0.408580000000     0.883990000000     0          
C7       C      0.142400000000     0.504640000000     0.787800000000     0          
H2       H      0.144300000000     0.511000000000     0.810700000000     0          
O4       O      0.160100000000     0.441800000000     0.892100000000     0          
Zr1      Zr     0.125000000000     0.625000000000     0.687190000000     0          
C1       C      0.127640000000     0.546010000000     0.703990000000     0          
C2       C      0.133600000000     0.519730000000     0.730270000000     0          
C4       C      0.158500000000     0.399780000000     0.850220000000     0          
C6       C      0.145700000000     0.471140000000     0.778860000000     0          
C8       C      0.150500000000     0.445960000000     0.804040000000     0          
C9       C      0.155200000000     0.425010000000     0.824990000000     0          
O2       O      0.826180000000     0.875430000000     0.785890000000     0          
C3       C      0.778990000000     0.886200000000     0.736460000000     0          
H1       H      0.801900000000     0.883800000000     0.730200000000     0          
C5       C      0.658580000000     0.909300000000     0.616010000000     0          
C7       C      0.754640000000     0.892400000000     0.712200000000     0          
H2       H      0.761000000000     0.894300000000     0.689300000000     0          
O4       O      0.691800000000     0.910100000000     0.607900000000     0          
C1       C      0.796010000000     0.877640000000     0.796010000000     0          
C2       C      0.769730000000     0.883600000000     0.769730000000     0          
C4       C      0.649780000000     0.908500000000     0.649780000000     0          
C6       C      0.721140000000     0.895700000000     0.721140000000     0          
C8       C      0.695960000000     0.900500000000     0.695960000000     0          
C9       C      0.675010000000     0.905200000000     0.675010000000     0          
O2       O      0.624570000000     0.076180000000     0.535890000000     0          
C3       C      0.613800000000     0.028990000000     0.486460000000     0          
H1       H      0.616200000000     0.051900000000     0.480200000000     0          
C5       C      0.590700000000     0.908580000000     0.366010000000     0          
C7       C      0.607600000000     0.004640000000     0.462200000000     0          
H2       H      0.605700000000     0.011000000000     0.439300000000     0          
O4       O      0.589900000000     0.941800000000     0.357900000000     0          
Zr1      Zr     0.625000000000     0.125000000000     0.562810000000     0          
O2       O      0.625430000000     0.673820000000     0.035890000000     0          
C3       C      0.636200000000     0.721010000000     0.986460000000     0          
H1       H      0.633800000000     0.698100000000     0.980200000000     0          
C5       C      0.659300000000     0.841420000000     0.866010000000     0          
C7       C      0.642400000000     0.745360000000     0.962200000000     0          
H2       H      0.644300000000     0.739000000000     0.939300000000     0          
O4       O      0.660100000000     0.808200000000     0.857900000000     0          
O1       O      0.595900000000     0.595900000000     0.095900000000     0          
C1       C      0.627640000000     0.703990000000     0.046010000000     0          
C2       C      0.633600000000     0.730270000000     0.019730000000     0          
C4       C      0.658500000000     0.850220000000     0.899780000000     0          
C6       C      0.645700000000     0.778860000000     0.971140000000     0          
C8       C      0.650500000000     0.804040000000     0.945960000000     0          
C9       C      0.655200000000     0.824990000000     0.925010000000     0          
O2       O      0.214110000000     0.576180000000     0.625430000000     0          
C3       C      0.263540000000     0.528990000000     0.636200000000     0          
H1       H      0.269800000000     0.551900000000     0.633800000000     0          
C5       C      0.383990000000     0.408580000000     0.659300000000     0          
C7       C      0.287800000000     0.504640000000     0.642400000000     0          
H2       H      0.310700000000     0.511000000000     0.644300000000     0          
O4       O      0.392100000000     0.441800000000     0.660100000000     0          
O2       O      0.923820000000     0.964110000000     0.875430000000     0          
C3       C      0.971010000000     0.013540000000     0.886200000000     0          
H1       H      0.948100000000     0.019800000000     0.883800000000     0          
C5       C      0.091420000000     0.133990000000     0.909300000000     0          
C7       C      0.995360000000     0.037800000000     0.892400000000     0          
H2       H      0.989000000000     0.060700000000     0.894300000000     0          
O4       O      0.058200000000     0.142100000000     0.910100000000     0          
C1       C      0.953990000000     0.953990000000     0.877640000000     0          
C2       C      0.980270000000     0.980270000000     0.883600000000     0          
C4       C      0.100220000000     0.100220000000     0.908500000000     0          
C6       C      0.028860000000     0.028860000000     0.895700000000     0          
C8       C      0.054040000000     0.054040000000     0.900500000000     0          
C9       C      0.074990000000     0.074990000000     0.905200000000     0          
O2       O      0.535890000000     0.673820000000     0.125430000000     0          
C3       C      0.486460000000     0.721010000000     0.136200000000     0          
H1       H      0.480200000000     0.698100000000     0.133800000000     0          
C5       C      0.366010000000     0.841420000000     0.159300000000     0          
C7       C      0.462200000000     0.745360000000     0.142400000000     0          
H2       H      0.439300000000     0.739000000000     0.144300000000     0          
O4       O      0.357900000000     0.808200000000     0.160100000000     0          
Zr1      Zr     0.562810000000     0.625000000000     0.125000000000     0          
C1       C      0.546010000000     0.703990000000     0.127640000000     0          
C2       C      0.519730000000     0.730270000000     0.133600000000     0          
C4       C      0.399780000000     0.850220000000     0.158500000000     0          
C6       C      0.471140000000     0.778860000000     0.145700000000     0          
C8       C      0.445960000000     0.804040000000     0.150500000000     0          
C9       C      0.425010000000     0.824990000000     0.155200000000     0          
O2       O      0.826180000000     0.285890000000     0.375430000000     0          
C3       C      0.778990000000     0.236460000000     0.386200000000     0          
H1       H      0.801900000000     0.230200000000     0.383800000000     0          
C5       C      0.658580000000     0.116010000000     0.409300000000     0          
C7       C      0.754640000000     0.212200000000     0.392400000000     0          
H2       H      0.761000000000     0.189300000000     0.394300000000     0          
O4       O      0.691800000000     0.107900000000     0.410100000000     0          
Zr1      Zr     0.875000000000     0.312810000000     0.375000000000     0          
C1       C      0.796010000000     0.296010000000     0.377640000000     0          
C2       C      0.769730000000     0.269730000000     0.383600000000     0          
C4       C      0.649780000000     0.149780000000     0.408500000000     0          
C6       C      0.721140000000     0.221140000000     0.395700000000     0          
C8       C      0.695960000000     0.195960000000     0.400500000000     0          
C9       C      0.675010000000     0.175010000000     0.405200000000     0          
O2       O      0.214110000000     0.673820000000     0.624570000000     0          
C3       C      0.263540000000     0.721010000000     0.613800000000     0          
H1       H      0.269800000000     0.698100000000     0.616200000000     0          
C5       C      0.383990000000     0.841420000000     0.590700000000     0          
C7       C      0.287800000000     0.745360000000     0.607600000000     0          
H2       H      0.310700000000     0.739000000000     0.605700000000     0          
O4       O      0.392100000000     0.808200000000     0.589900000000     0          
C1       C      0.203990000000     0.703990000000     0.622360000000     0          
C2       C      0.230270000000     0.730270000000     0.616400000000     0          
C4       C      0.350220000000     0.850220000000     0.591500000000     0          
C6       C      0.278860000000     0.778860000000     0.604300000000     0          
C8       C      0.304040000000     0.804040000000     0.599500000000     0          
C9       C      0.324990000000     0.824990000000     0.594800000000     0          
O2       O      0.826180000000     0.964110000000     0.874570000000     0          
C3       C      0.778990000000     0.013540000000     0.863800000000     0          
H1       H      0.801900000000     0.019800000000     0.866200000000     0          
C5       C      0.658580000000     0.133990000000     0.840700000000     0          
C7       C      0.754640000000     0.037800000000     0.857600000000     0          
H2       H      0.761000000000     0.060700000000     0.855700000000     0          
O4       O      0.691800000000     0.142100000000     0.839900000000     0          
O2       O      0.535890000000     0.576180000000     0.124570000000     0          
C3       C      0.486460000000     0.528990000000     0.113800000000     0          
H1       H      0.480200000000     0.551900000000     0.116200000000     0          
C5       C      0.366010000000     0.408580000000     0.090700000000     0          
C7       C      0.462200000000     0.504640000000     0.107600000000     0          
H2       H      0.439300000000     0.511000000000     0.105700000000     0          
O4       O      0.357900000000     0.441800000000     0.089900000000     0          
O1       O      0.595900000000     0.654100000000     0.154100000000     0          
O3       O      0.592800000000     0.592800000000     0.157200000000     0          
C1       C      0.546010000000     0.546010000000     0.122360000000     0          
C2       C      0.519730000000     0.519730000000     0.116400000000     0          
C4       C      0.399780000000     0.399780000000     0.091500000000     0          
C6       C      0.471140000000     0.471140000000     0.104300000000     0          
C8       C      0.445960000000     0.445960000000     0.099500000000     0          
C9       C      0.425010000000     0.425010000000     0.094800000000     0          
O2       O      0.923820000000     0.285890000000     0.374570000000     0          
C3       C      0.971010000000     0.236460000000     0.363800000000     0          
H1       H      0.948100000000     0.230200000000     0.366200000000     0          
C5       C      0.091420000000     0.116010000000     0.340700000000     0          
C7       C      0.995360000000     0.212200000000     0.357600000000     0          
H2       H      0.989000000000     0.189300000000     0.355700000000     0          
O4       O      0.058200000000     0.107900000000     0.339900000000     0          
C1       C      0.953990000000     0.296010000000     0.372360000000     0          
C2       C      0.980270000000     0.269730000000     0.366400000000     0          
C4       C      0.100220000000     0.149780000000     0.341500000000     0          
C6       C      0.028860000000     0.221140000000     0.354300000000     0          
C8       C      0.054040000000     0.195960000000     0.349500000000     0          
C9       C      0.074990000000     0.175010000000     0.344800000000     0          
O2       O      0.125430000000     0.714110000000     0.576180000000     0          
C3       C      0.136200000000     0.763540000000     0.528990000000     0          
H1       H      0.133800000000     0.769800000000     0.551900000000     0          
C5       C      0.159300000000     0.883990000000     0.408580000000     0          
C7       C      0.142400000000     0.787800000000     0.504640000000     0          
H2       H      0.144300000000     0.810700000000     0.511000000000     0          
O4       O      0.160100000000     0.892100000000     0.441800000000     0          
Zr1      Zr     0.125000000000     0.687190000000     0.625000000000     0          
C1       C      0.127640000000     0.703990000000     0.546010000000     0          
C2       C      0.133600000000     0.730270000000     0.519730000000     0          
C4       C      0.158500000000     0.850220000000     0.399780000000     0          
C6       C      0.145700000000     0.778860000000     0.471140000000     0          
C8       C      0.150500000000     0.804040000000     0.445960000000     0          
C9       C      0.155200000000     0.824990000000     0.425010000000     0          
O2       O      0.785890000000     0.875430000000     0.826180000000     0          
C3       C      0.736460000000     0.886200000000     0.778990000000     0          
H1       H      0.730200000000     0.883800000000     0.801900000000     0          
C5       C      0.616010000000     0.909300000000     0.658580000000     0          
C7       C      0.712200000000     0.892400000000     0.754640000000     0          
H2       H      0.689300000000     0.894300000000     0.761000000000     0          
O4       O      0.607900000000     0.910100000000     0.691800000000     0          
O2       O      0.624570000000     0.535890000000     0.076180000000     0          
C3       C      0.613800000000     0.486460000000     0.028990000000     0          
H1       H      0.616200000000     0.480200000000     0.051900000000     0          
C5       C      0.590700000000     0.366010000000     0.908580000000     0          
C7       C      0.607600000000     0.462200000000     0.004640000000     0          
H2       H      0.605700000000     0.439300000000     0.011000000000     0          
O4       O      0.589900000000     0.357900000000     0.941800000000     0          
Zr1      Zr     0.625000000000     0.562810000000     0.125000000000     0          
O1       O      0.654100000000     0.595900000000     0.154100000000     0          
O3       O      0.657200000000     0.592800000000     0.092800000000     0          
C1       C      0.622360000000     0.546010000000     0.046010000000     0          
C2       C      0.616400000000     0.519730000000     0.019730000000     0          
C4       C      0.591500000000     0.399780000000     0.899780000000     0          
C6       C      0.604300000000     0.471140000000     0.971140000000     0          
C8       C      0.599500000000     0.445960000000     0.945960000000     0          
C9       C      0.594800000000     0.425010000000     0.925010000000     0          
O2       O      0.964110000000     0.374570000000     0.326180000000     0          
C3       C      0.013540000000     0.363800000000     0.278990000000     0          
H1       H      0.019800000000     0.366200000000     0.301900000000     0          
C5       C      0.133990000000     0.340700000000     0.158580000000     0          
C7       C      0.037800000000     0.357600000000     0.254640000000     0          
H2       H      0.060700000000     0.355700000000     0.261000000000     0          
O4       O      0.142100000000     0.339900000000     0.191800000000     0          
C1       C      0.953990000000     0.372360000000     0.296010000000     0          
C2       C      0.980270000000     0.366400000000     0.269730000000     0          
C4       C      0.100220000000     0.341500000000     0.149780000000     0          
C6       C      0.028860000000     0.354300000000     0.221140000000     0          
C8       C      0.054040000000     0.349500000000     0.195960000000     0          
C9       C      0.074990000000     0.344800000000     0.175010000000     0          
O2       O      0.125430000000     0.535890000000     0.673820000000     0          
C3       C      0.136200000000     0.486460000000     0.721010000000     0          
H1       H      0.133800000000     0.480200000000     0.698100000000     0          
C5       C      0.159300000000     0.366010000000     0.841420000000     0          
C7       C      0.142400000000     0.462200000000     0.745360000000     0          
H2       H      0.144300000000     0.439300000000     0.739000000000     0          
O4       O      0.160100000000     0.357900000000     0.808200000000     0          
O2       O      0.964110000000     0.875430000000     0.923820000000     0          
C3       C      0.013540000000     0.886200000000     0.971010000000     0          
H1       H      0.019800000000     0.883800000000     0.948100000000     0          
C5       C      0.133990000000     0.909300000000     0.091420000000     0          
C7       C      0.037800000000     0.892400000000     0.995360000000     0          
H2       H      0.060700000000     0.894300000000     0.989000000000     0          
O4       O      0.142100000000     0.910100000000     0.058200000000     0          
C1       C      0.953990000000     0.877640000000     0.953990000000     0          
C2       C      0.980270000000     0.883600000000     0.980270000000     0          
C4       C      0.100220000000     0.908500000000     0.100220000000     0          
C6       C      0.028860000000     0.895700000000     0.028860000000     0          
C8       C      0.054040000000     0.900500000000     0.054040000000     0          
C9       C      0.074990000000     0.905200000000     0.074990000000     0          
O2       O      0.624570000000     0.714110000000     0.173820000000     0          
C3       C      0.613800000000     0.763540000000     0.221010000000     0          
H1       H      0.616200000000     0.769800000000     0.198100000000     0          
C5       C      0.590700000000     0.883990000000     0.341420000000     0          
C7       C      0.607600000000     0.787800000000     0.245360000000     0          
H2       H      0.605700000000     0.810700000000     0.239000000000     0          
O4       O      0.589900000000     0.892100000000     0.308200000000     0          
Zr1      Zr     0.625000000000     0.687190000000     0.125000000000     0          
O3       O      0.657200000000     0.657200000000     0.157200000000     0          
C1       C      0.622360000000     0.703990000000     0.203990000000     0          
C2       C      0.616400000000     0.730270000000     0.230270000000     0          
C4       C      0.591500000000     0.850220000000     0.350220000000     0          
C6       C      0.604300000000     0.778860000000     0.278860000000     0          
C8       C      0.599500000000     0.804040000000     0.304040000000     0          
C9       C      0.594800000000     0.824990000000     0.324990000000     0          
O2       O      0.785890000000     0.374570000000     0.423820000000     0          
C3       C      0.736460000000     0.363800000000     0.471010000000     0          
H1       H      0.730200000000     0.366200000000     0.448100000000     0          
C5       C      0.616010000000     0.340700000000     0.591420000000     0          
C7       C      0.712200000000     0.357600000000     0.495360000000     0          
H2       H      0.689300000000     0.355700000000     0.489000000000     0          
O4       O      0.607900000000     0.339900000000     0.558200000000     0          
O2       O      0.076180000000     0.625430000000     0.714110000000     0          
C3       C      0.028990000000     0.636200000000     0.763540000000     0          
H1       H      0.051900000000     0.633800000000     0.769800000000     0          
C5       C      0.908580000000     0.659300000000     0.883990000000     0          
C7       C      0.004640000000     0.642400000000     0.787800000000     0          
H2       H      0.011000000000     0.644300000000     0.810700000000     0          
O4       O      0.941800000000     0.660100000000     0.892100000000     0          
C1       C      0.046010000000     0.627640000000     0.703990000000     0          
C2       C      0.019730000000     0.633600000000     0.730270000000     0          
C4       C      0.899780000000     0.658500000000     0.850220000000     0          
C6       C      0.971140000000     0.645700000000     0.778860000000     0          
C8       C      0.945960000000     0.650500000000     0.804040000000     0          
C9       C      0.925010000000     0.655200000000     0.824990000000     0          
O2       O      0.576180000000     0.124570000000     0.535890000000     0          
C3       C      0.528990000000     0.113800000000     0.486460000000     0          
H1       H      0.551900000000     0.116200000000     0.480200000000     0          
C5       C      0.408580000000     0.090700000000     0.366010000000     0          
C7       C      0.504640000000     0.107600000000     0.462200000000     0          
H2       H      0.511000000000     0.105700000000     0.439300000000     0          
O4       O      0.441800000000     0.089900000000     0.357900000000     0          
C1       C      0.546010000000     0.122360000000     0.546010000000     0          
C2       C      0.519730000000     0.116400000000     0.519730000000     0          
C4       C      0.399780000000     0.091500000000     0.399780000000     0          
C6       C      0.471140000000     0.104300000000     0.471140000000     0          
C8       C      0.445960000000     0.099500000000     0.445960000000     0          
C9       C      0.425010000000     0.094800000000     0.425010000000     0          
O2       O      0.375430000000     0.326180000000     0.785890000000     0          
C3       C      0.386200000000     0.278990000000     0.736460000000     0          
H1       H      0.383800000000     0.301900000000     0.730200000000     0          
C5       C      0.409300000000     0.158580000000     0.616010000000     0          
C7       C      0.392400000000     0.254640000000     0.712200000000     0          
H2       H      0.394300000000     0.261000000000     0.689300000000     0          
O4       O      0.410100000000     0.191800000000     0.607900000000     0          
Zr1      Zr     0.375000000000     0.375000000000     0.812810000000     0          
O1       O      0.345900000000     0.404100000000     0.845900000000     0          
O3       O      0.342800000000     0.342800000000     0.842800000000     0          
C1       C      0.377640000000     0.296010000000     0.796010000000     0          
C2       C      0.383600000000     0.269730000000     0.769730000000     0          
C4       C      0.408500000000     0.149780000000     0.649780000000     0          
C6       C      0.395700000000     0.221140000000     0.721140000000     0          
C8       C      0.400500000000     0.195960000000     0.695960000000     0          
C9       C      0.405200000000     0.175010000000     0.675010000000     0          
O2       O      0.173820000000     0.125430000000     0.035890000000     0          
C3       C      0.221010000000     0.136200000000     0.986460000000     0          
H1       H      0.198100000000     0.133800000000     0.980200000000     0          
C5       C      0.341420000000     0.159300000000     0.866010000000     0          
C7       C      0.245360000000     0.142400000000     0.962200000000     0          
H2       H      0.239000000000     0.144300000000     0.939300000000     0          
O4       O      0.308200000000     0.160100000000     0.857900000000     0          
Zr1      Zr     0.125000000000     0.125000000000     0.062810000000     0          
O2       O      0.874570000000     0.923820000000     0.785890000000     0          
C3       C      0.863800000000     0.971010000000     0.736460000000     0          
H1       H      0.866200000000     0.948100000000     0.730200000000     0          
C5       C      0.840700000000     0.091420000000     0.616010000000     0          
C7       C      0.857600000000     0.995360000000     0.712200000000     0          
H2       H      0.855700000000     0.989000000000     0.689300000000     0          
O4       O      0.839900000000     0.058200000000     0.607900000000     0          
O2       O      0.173820000000     0.624570000000     0.714110000000     0          
C3       C      0.221010000000     0.613800000000     0.763540000000     0          
H1       H      0.198100000000     0.616200000000     0.769800000000     0          
C5       C      0.341420000000     0.590700000000     0.883990000000     0          
C7       C      0.245360000000     0.607600000000     0.787800000000     0          
H2       H      0.239000000000     0.605700000000     0.810700000000     0          
O4       O      0.308200000000     0.589900000000     0.892100000000     0          
O2       O      0.375430000000     0.423820000000     0.964110000000     0          
C3       C      0.386200000000     0.471010000000     0.013540000000     0          
H1       H      0.383800000000     0.448100000000     0.019800000000     0          
C5       C      0.409300000000     0.591420000000     0.133990000000     0          
C7       C      0.392400000000     0.495360000000     0.037800000000     0          
H2       H      0.394300000000     0.489000000000     0.060700000000     0          
O4       O      0.410100000000     0.558200000000     0.142100000000     0          
O3       O      0.342800000000     0.407200000000     0.907200000000     0          
C1       C      0.377640000000     0.453990000000     0.953990000000     0          
C2       C      0.383600000000     0.480270000000     0.980270000000     0          
C4       C      0.408500000000     0.600220000000     0.100220000000     0          
C6       C      0.395700000000     0.528860000000     0.028860000000     0          
C8       C      0.400500000000     0.554040000000     0.054040000000     0          
C9       C      0.405200000000     0.574990000000     0.074990000000     0          
O2       O      0.374570000000     0.826180000000     0.464110000000     0          
C3       C      0.363800000000     0.778990000000     0.513540000000     0          
H1       H      0.366200000000     0.801900000000     0.519800000000     0          
C5       C      0.340700000000     0.658580000000     0.633990000000     0          
C7       C      0.357600000000     0.754640000000     0.537800000000     0          
H2       H      0.355700000000     0.761000000000     0.560700000000     0          
O4       O      0.339900000000     0.691800000000     0.642100000000     0          
C1       C      0.372360000000     0.796010000000     0.453990000000     0          
C2       C      0.366400000000     0.769730000000     0.480270000000     0          
C4       C      0.341500000000     0.649780000000     0.600220000000     0          
C6       C      0.354300000000     0.721140000000     0.528860000000     0          
C8       C      0.349500000000     0.695960000000     0.554040000000     0          
C9       C      0.344800000000     0.675010000000     0.574990000000     0          
O2       O      0.785890000000     0.423820000000     0.374570000000     0          
C3       C      0.736460000000     0.471010000000     0.363800000000     0          
H1       H      0.730200000000     0.448100000000     0.366200000000     0          
C5       C      0.616010000000     0.591420000000     0.340700000000     0          
C7       C      0.712200000000     0.495360000000     0.357600000000     0          
H2       H      0.689300000000     0.489000000000     0.355700000000     0          
O4       O      0.607900000000     0.558200000000     0.339900000000     0          
O2       O      0.076180000000     0.035890000000     0.124570000000     0          
C3       C      0.028990000000     0.986460000000     0.113800000000     0          
H1       H      0.051900000000     0.980200000000     0.116200000000     0          
C5       C      0.908580000000     0.866010000000     0.090700000000     0          
C7       C      0.004640000000     0.962200000000     0.107600000000     0          
H2       H      0.011000000000     0.939300000000     0.105700000000     0          
O4       O      0.941800000000     0.857900000000     0.089900000000     0          
C1       C      0.046010000000     0.046010000000     0.122360000000     0          
C2       C      0.019730000000     0.019730000000     0.116400000000     0          
C4       C      0.899780000000     0.899780000000     0.091500000000     0          
C6       C      0.971140000000     0.971140000000     0.104300000000     0          
C8       C      0.945960000000     0.945960000000     0.099500000000     0          
C9       C      0.925010000000     0.925010000000     0.094800000000     0          
O2       O      0.464110000000     0.326180000000     0.874570000000     0          
C3       C      0.513540000000     0.278990000000     0.863800000000     0          
H1       H      0.519800000000     0.301900000000     0.866200000000     0          
C5       C      0.633990000000     0.158580000000     0.840700000000     0          
C7       C      0.537800000000     0.254640000000     0.857600000000     0          
H2       H      0.560700000000     0.261000000000     0.855700000000     0          
O4       O      0.642100000000     0.191800000000     0.839900000000     0          
Zr1      Zr     0.437190000000     0.375000000000     0.875000000000     0          
C1       C      0.453990000000     0.296010000000     0.872360000000     0          
C2       C      0.480270000000     0.269730000000     0.866400000000     0          
C4       C      0.600220000000     0.149780000000     0.841500000000     0          
C6       C      0.528860000000     0.221140000000     0.854300000000     0          
C8       C      0.554040000000     0.195960000000     0.849500000000     0          
C9       C      0.574990000000     0.175010000000     0.844800000000     0          
O2       O      0.173820000000     0.714110000000     0.624570000000     0          
C3       C      0.221010000000     0.763540000000     0.613800000000     0          
H1       H      0.198100000000     0.769800000000     0.616200000000     0          
C5       C      0.341420000000     0.883990000000     0.590700000000     0          
C7       C      0.245360000000     0.787800000000     0.607600000000     0          
H2       H      0.239000000000     0.810700000000     0.605700000000     0          
O4       O      0.308200000000     0.892100000000     0.589900000000     0          
O2       O      0.785890000000     0.326180000000     0.375430000000     0          
C3       C      0.736460000000     0.278990000000     0.386200000000     0          
H1       H      0.730200000000     0.301900000000     0.383800000000     0          
C5       C      0.616010000000     0.158580000000     0.409300000000     0          
C7       C      0.712200000000     0.254640000000     0.392400000000     0          
H2       H      0.689300000000     0.261000000000     0.394300000000     0          
O4       O      0.607900000000     0.191800000000     0.410100000000     0          
O2       O      0.173820000000     0.035890000000     0.125430000000     0          
C3       C      0.221010000000     0.986460000000     0.136200000000     0          
H1       H      0.198100000000     0.980200000000     0.133800000000     0          
C5       C      0.341420000000     0.866010000000     0.159300000000     0          
C7       C      0.245360000000     0.962200000000     0.142400000000     0          
H2       H      0.239000000000     0.939300000000     0.144300000000     0          
O4       O      0.308200000000     0.857900000000     0.160100000000     0          
O2       O      0.464110000000     0.423820000000     0.875430000000     0          
C3       C      0.513540000000     0.471010000000     0.886200000000     0          
H1       H      0.519800000000     0.448100000000     0.883800000000     0          
C5       C      0.633990000000     0.591420000000     0.909300000000     0          
C7       C      0.537800000000     0.495360000000     0.892400000000     0          
H2       H      0.560700000000     0.489000000000     0.894300000000     0          
O4       O      0.642100000000     0.558200000000     0.910100000000     0          
O1       O      0.404100000000     0.345900000000     0.845900000000     0          
O3       O      0.407200000000     0.407200000000     0.842800000000     0          
C1       C      0.453990000000     0.453990000000     0.877640000000     0          
C2       C      0.480270000000     0.480270000000     0.883600000000     0          
C4       C      0.600220000000     0.600220000000     0.908500000000     0          
C6       C      0.528860000000     0.528860000000     0.895700000000     0          
C8       C      0.554040000000     0.554040000000     0.900500000000     0          
C9       C      0.574990000000     0.574990000000     0.905200000000     0          
O2       O      0.076180000000     0.714110000000     0.625430000000     0          
C3       C      0.028990000000     0.763540000000     0.636200000000     0          
H1       H      0.051900000000     0.769800000000     0.633800000000     0          
C5       C      0.908580000000     0.883990000000     0.659300000000     0          
C7       C      0.004640000000     0.787800000000     0.642400000000     0          
H2       H      0.011000000000     0.810700000000     0.644300000000     0          
O4       O      0.941800000000     0.892100000000     0.660100000000     0          
C1       C      0.046010000000     0.703990000000     0.627640000000     0          
C2       C      0.019730000000     0.730270000000     0.633600000000     0          
C4       C      0.899780000000     0.850220000000     0.658500000000     0          
C6       C      0.971140000000     0.778860000000     0.645700000000     0          
C8       C      0.945960000000     0.804040000000     0.650500000000     0          
C9       C      0.925010000000     0.824990000000     0.655200000000     0          
O2       O      0.874570000000     0.285890000000     0.423820000000     0          
C3       C      0.863800000000     0.236460000000     0.471010000000     0          
H1       H      0.866200000000     0.230200000000     0.448100000000     0          
C5       C      0.840700000000     0.116010000000     0.591420000000     0          
C7       C      0.857600000000     0.212200000000     0.495360000000     0          
H2       H      0.855700000000     0.189300000000     0.489000000000     0          
O4       O      0.839900000000     0.107900000000     0.558200000000     0          
C1       C      0.872360000000     0.296010000000     0.453990000000     0          
C2       C      0.866400000000     0.269730000000     0.480270000000     0          
C4       C      0.841500000000     0.149780000000     0.600220000000     0          
C6       C      0.854300000000     0.221140000000     0.528860000000     0          
C8       C      0.849500000000     0.195960000000     0.554040000000     0          
C9       C      0.844800000000     0.175010000000     0.574990000000     0          
O2       O      0.214110000000     0.124570000000     0.173820000000     0          
C3       C      0.263540000000     0.113800000000     0.221010000000     0          
H1       H      0.269800000000     0.116200000000     0.198100000000     0          
C5       C      0.383990000000     0.090700000000     0.341420000000     0          
C7       C      0.287800000000     0.107600000000     0.245360000000     0          
H2       H      0.310700000000     0.105700000000     0.239000000000     0          
O4       O      0.392100000000     0.089900000000     0.308200000000     0          
O2       O      0.375430000000     0.464110000000     0.923820000000     0          
C3       C      0.386200000000     0.513540000000     0.971010000000     0          
H1       H      0.383800000000     0.519800000000     0.948100000000     0          
C5       C      0.409300000000     0.633990000000     0.091420000000     0          
C7       C      0.392400000000     0.537800000000     0.995360000000     0          
H2       H      0.394300000000     0.560700000000     0.989000000000     0          
O4       O      0.410100000000     0.642100000000     0.058200000000     0          
Zr1      Zr     0.375000000000     0.437190000000     0.875000000000     0          
O2       O      0.035890000000     0.625430000000     0.673820000000     0          
C3       C      0.986460000000     0.636200000000     0.721010000000     0          
H1       H      0.980200000000     0.633800000000     0.698100000000     0          
C5       C      0.866010000000     0.659300000000     0.841420000000     0          
C7       C      0.962200000000     0.642400000000     0.745360000000     0          
H2       H      0.939300000000     0.644300000000     0.739000000000     0          
O4       O      0.857900000000     0.660100000000     0.808200000000     0          
O2       O      0.874570000000     0.464110000000     0.326180000000     0          
C3       C      0.863800000000     0.513540000000     0.278990000000     0          
H1       H      0.866200000000     0.519800000000     0.301900000000     0          
C5       C      0.840700000000     0.633990000000     0.158580000000     0          
C7       C      0.857600000000     0.537800000000     0.254640000000     0          
H2       H      0.855700000000     0.560700000000     0.261000000000     0          
O4       O      0.839900000000     0.642100000000     0.191800000000     0          
O2       O      0.035890000000     0.124570000000     0.076180000000     0          
C3       C      0.986460000000     0.113800000000     0.028990000000     0          
H1       H      0.980200000000     0.116200000000     0.051900000000     0          
C5       C      0.866010000000     0.090700000000     0.908580000000     0          
C7       C      0.962200000000     0.107600000000     0.004640000000     0          
H2       H      0.939300000000     0.105700000000     0.011000000000     0          
O4       O      0.857900000000     0.089900000000     0.941800000000     0          
C1       C      0.046010000000     0.122360000000     0.046010000000     0          
C2       C      0.019730000000     0.116400000000     0.019730000000     0          
C4       C      0.899780000000     0.091500000000     0.899780000000     0          
C6       C      0.971140000000     0.104300000000     0.971140000000     0          
C8       C      0.945960000000     0.099500000000     0.945960000000     0          
C9       C      0.925010000000     0.094800000000     0.925010000000     0          
O2       O      0.375430000000     0.285890000000     0.826180000000     0          
C3       C      0.386200000000     0.236460000000     0.778990000000     0          
H1       H      0.383800000000     0.230200000000     0.801900000000     0          
C5       C      0.409300000000     0.116010000000     0.658580000000     0          
C7       C      0.392400000000     0.212200000000     0.754640000000     0          
H2       H      0.394300000000     0.189300000000     0.761000000000     0          
O4       O      0.410100000000     0.107900000000     0.691800000000     0          
Zr1      Zr     0.375000000000     0.312810000000     0.875000000000     0          
O2       O      0.214110000000     0.625430000000     0.576180000000     0          
C3       C      0.263540000000     0.636200000000     0.528990000000     0          
H1       H      0.269800000000     0.633800000000     0.551900000000     0          
C5       C      0.383990000000     0.659300000000     0.408580000000     0          
C7       C      0.287800000000     0.642400000000     0.504640000000     0          
H2       H      0.310700000000     0.644300000000     0.511000000000     0          
O4       O      0.392100000000     0.660100000000     0.441800000000     0          
O2       O      0.923820000000     0.374570000000     0.285890000000     0          
C3       C      0.971010000000     0.363800000000     0.236460000000     0          
H1       H      0.948100000000     0.366200000000     0.230200000000     0          
C5       C      0.091420000000     0.340700000000     0.116010000000     0          
C7       C      0.995360000000     0.357600000000     0.212200000000     0          
H2       H      0.989000000000     0.355700000000     0.189300000000     0          
O4       O      0.058200000000     0.339900000000     0.107900000000     0          
O2       O      0.423820000000     0.875430000000     0.464110000000     0          
C3       C      0.471010000000     0.886200000000     0.513540000000     0          
H1       H      0.448100000000     0.883800000000     0.519800000000     0          
C5       C      0.591420000000     0.909300000000     0.633990000000     0          
C7       C      0.495360000000     0.892400000000     0.537800000000     0          
H2       H      0.489000000000     0.894300000000     0.560700000000     0          
O4       O      0.558200000000     0.910100000000     0.642100000000     0          
C1       C      0.453990000000     0.877640000000     0.453990000000     0          
C2       C      0.480270000000     0.883600000000     0.480270000000     0          
C4       C      0.600220000000     0.908500000000     0.600220000000     0          
C6       C      0.528860000000     0.895700000000     0.528860000000     0          
C8       C      0.554040000000     0.900500000000     0.554040000000     0          
C9       C      0.574990000000     0.905200000000     0.574990000000     0          
O2       O      0.624570000000     0.673820000000     0.214110000000     0          
C3       C      0.613800000000     0.721010000000     0.263540000000     0          
H1       H      0.616200000000     0.698100000000     0.269800000000     0          
C5       C      0.590700000000     0.841420000000     0.383990000000     0          
C7       C      0.607600000000     0.745360000000     0.287800000000     0          
H2       H      0.605700000000     0.739000000000     0.310700000000     0          
O4       O      0.589900000000     0.808200000000     0.392100000000     0          
Zr1      Zr     0.625000000000     0.625000000000     0.187190000000     0          
O2       O      0.826180000000     0.874570000000     0.964110000000     0          
C3       C      0.778990000000     0.863800000000     0.013540000000     0          
H1       H      0.801900000000     0.866200000000     0.019800000000     0          
C5       C      0.658580000000     0.840700000000     0.133990000000     0          
C7       C      0.754640000000     0.857600000000     0.037800000000     0          
H2       H      0.761000000000     0.855700000000     0.060700000000     0          
O4       O      0.691800000000     0.839900000000     0.142100000000     0          
Zr1      Zr     0.875000000000     0.875000000000     0.937190000000     0          
O2       O      0.125430000000     0.076180000000     0.214110000000     0          
C3       C      0.136200000000     0.028990000000     0.263540000000     0          
H1       H      0.133800000000     0.051900000000     0.269800000000     0          
C5       C      0.159300000000     0.908580000000     0.383990000000     0          
C7       C      0.142400000000     0.004640000000     0.287800000000     0          
H2       H      0.144300000000     0.011000000000     0.310700000000     0          
O4       O      0.160100000000     0.941800000000     0.392100000000     0          
O2       O      0.826180000000     0.375430000000     0.285890000000     0          
C3       C      0.778990000000     0.386200000000     0.236460000000     0          
H1       H      0.801900000000     0.383800000000     0.230200000000     0          
C5       C      0.658580000000     0.409300000000     0.116010000000     0          
C7       C      0.754640000000     0.392400000000     0.212200000000     0          
H2       H      0.761000000000     0.394300000000     0.189300000000     0          
O4       O      0.691800000000     0.410100000000     0.107900000000     0          
O2       O      0.624570000000     0.576180000000     0.035890000000     0          
C3       C      0.613800000000     0.528990000000     0.986460000000     0          
H1       H      0.616200000000     0.551900000000     0.980200000000     0          
C5       C      0.590700000000     0.408580000000     0.866010000000     0          
C7       C      0.607600000000     0.504640000000     0.962200000000     0          
H2       H      0.605700000000     0.511000000000     0.939300000000     0          
O4       O      0.589900000000     0.441800000000     0.857900000000     0          
O2       O      0.625430000000     0.173820000000     0.535890000000     0          
C3       C      0.636200000000     0.221010000000     0.486460000000     0          
H1       H      0.633800000000     0.198100000000     0.480200000000     0          
C5       C      0.659300000000     0.341420000000     0.366010000000     0          
C7       C      0.642400000000     0.245360000000     0.462200000000     0          
H2       H      0.644300000000     0.239000000000     0.439300000000     0          
O4       O      0.660100000000     0.308200000000     0.357900000000     0          
C1       C      0.627640000000     0.203990000000     0.546010000000     0          
C2       C      0.633600000000     0.230270000000     0.519730000000     0          
C4       C      0.658500000000     0.350220000000     0.399780000000     0          
C6       C      0.645700000000     0.278860000000     0.471140000000     0          
C8       C      0.650500000000     0.304040000000     0.445960000000     0          
C9       C      0.655200000000     0.324990000000     0.425010000000     0          
O2       O      0.714110000000     0.076180000000     0.625430000000     0          
C3       C      0.763540000000     0.028990000000     0.636200000000     0          
H1       H      0.769800000000     0.051900000000     0.633800000000     0          
C5       C      0.883990000000     0.908580000000     0.659300000000     0          
C7       C      0.787800000000     0.004640000000     0.642400000000     0          
H2       H      0.810700000000     0.011000000000     0.644300000000     0          
O4       O      0.892100000000     0.941800000000     0.660100000000     0          
Zr1      Zr     0.687190000000     0.125000000000     0.625000000000     0          
C1       C      0.703990000000     0.046010000000     0.627640000000     0          
C2       C      0.730270000000     0.019730000000     0.633600000000     0          
C4       C      0.850220000000     0.899780000000     0.658500000000     0          
C6       C      0.778860000000     0.971140000000     0.645700000000     0          
C8       C      0.804040000000     0.945960000000     0.650500000000     0          
C9       C      0.824990000000     0.925010000000     0.655200000000     0          
O2       O      0.423820000000     0.464110000000     0.875430000000     0          
C3       C      0.471010000000     0.513540000000     0.886200000000     0          
H1       H      0.448100000000     0.519800000000     0.883800000000     0          
C5       C      0.591420000000     0.633990000000     0.909300000000     0          
C7       C      0.495360000000     0.537800000000     0.892400000000     0          
H2       H      0.489000000000     0.560700000000     0.894300000000     0          
O4       O      0.558200000000     0.642100000000     0.910100000000     0          
O2       O      0.035890000000     0.173820000000     0.125430000000     0          
C3       C      0.986460000000     0.221010000000     0.136200000000     0          
H1       H      0.980200000000     0.198100000000     0.133800000000     0          
C5       C      0.866010000000     0.341420000000     0.159300000000     0          
C7       C      0.962200000000     0.245360000000     0.142400000000     0          
H2       H      0.939300000000     0.239000000000     0.144300000000     0          
O4       O      0.857900000000     0.308200000000     0.160100000000     0          
O2       O      0.326180000000     0.785890000000     0.375430000000     0          
C3       C      0.278990000000     0.736460000000     0.386200000000     0          
H1       H      0.301900000000     0.730200000000     0.383800000000     0          
C5       C      0.158580000000     0.616010000000     0.409300000000     0          
C7       C      0.254640000000     0.712200000000     0.392400000000     0          
H2       H      0.261000000000     0.689300000000     0.394300000000     0          
O4       O      0.191800000000     0.607900000000     0.410100000000     0          
C1       C      0.296010000000     0.796010000000     0.377640000000     0          
C2       C      0.269730000000     0.769730000000     0.383600000000     0          
C4       C      0.149780000000     0.649780000000     0.408500000000     0          
C6       C      0.221140000000     0.721140000000     0.395700000000     0          
C8       C      0.195960000000     0.695960000000     0.400500000000     0          
C9       C      0.175010000000     0.675010000000     0.405200000000     0          
O2       O      0.714110000000     0.173820000000     0.624570000000     0          
C3       C      0.763540000000     0.221010000000     0.613800000000     0          
H1       H      0.769800000000     0.198100000000     0.616200000000     0          
C5       C      0.883990000000     0.341420000000     0.590700000000     0          
C7       C      0.787800000000     0.245360000000     0.607600000000     0          
H2       H      0.810700000000     0.239000000000     0.605700000000     0          
O4       O      0.892100000000     0.308200000000     0.589900000000     0          
C1       C      0.703990000000     0.203990000000     0.622360000000     0          
C2       C      0.730270000000     0.230270000000     0.616400000000     0          
C4       C      0.850220000000     0.350220000000     0.591500000000     0          
C6       C      0.778860000000     0.278860000000     0.604300000000     0          
C8       C      0.804040000000     0.304040000000     0.599500000000     0          
C9       C      0.824990000000     0.324990000000     0.594800000000     0          
O2       O      0.326180000000     0.464110000000     0.874570000000     0          
C3       C      0.278990000000     0.513540000000     0.863800000000     0          
H1       H      0.301900000000     0.519800000000     0.866200000000     0          
C5       C      0.158580000000     0.633990000000     0.840700000000     0          
C7       C      0.254640000000     0.537800000000     0.857600000000     0          
H2       H      0.261000000000     0.560700000000     0.855700000000     0          
O4       O      0.191800000000     0.642100000000     0.839900000000     0          
C1       C      0.296010000000     0.453990000000     0.872360000000     0          
C2       C      0.269730000000     0.480270000000     0.866400000000     0          
C4       C      0.149780000000     0.600220000000     0.841500000000     0          
C6       C      0.221140000000     0.528860000000     0.854300000000     0          
C8       C      0.195960000000     0.554040000000     0.849500000000     0          
C9       C      0.175010000000     0.574990000000     0.844800000000     0          
O2       O      0.035890000000     0.076180000000     0.124570000000     0          
C3       C      0.986460000000     0.028990000000     0.113800000000     0          
H1       H      0.980200000000     0.051900000000     0.116200000000     0          
C5       C      0.866010000000     0.908580000000     0.090700000000     0          
C7       C      0.962200000000     0.004640000000     0.107600000000     0          
H2       H      0.939300000000     0.011000000000     0.105700000000     0          
O4       O      0.857900000000     0.941800000000     0.089900000000     0          
O2       O      0.423820000000     0.785890000000     0.374570000000     0          
C3       C      0.471010000000     0.736460000000     0.363800000000     0          
H1       H      0.448100000000     0.730200000000     0.366200000000     0          
C5       C      0.591420000000     0.616010000000     0.340700000000     0          
C7       C      0.495360000000     0.712200000000     0.357600000000     0          
H2       H      0.489000000000     0.689300000000     0.355700000000     0          
O4       O      0.558200000000     0.607900000000     0.339900000000     0          
O2       O      0.625430000000     0.214110000000     0.576180000000     0          
C3       C      0.636200000000     0.263540000000     0.528990000000     0          
H1       H      0.633800000000     0.269800000000     0.551900000000     0          
C5       C      0.659300000000     0.383990000000     0.408580000000     0          
C7       C      0.642400000000     0.287800000000     0.504640000000     0          
H2       H      0.644300000000     0.310700000000     0.511000000000     0          
O4       O      0.660100000000     0.392100000000     0.441800000000     0          
O2       O      0.285890000000     0.375430000000     0.826180000000     0          
C3       C      0.236460000000     0.386200000000     0.778990000000     0          
H1       H      0.230200000000     0.383800000000     0.801900000000     0          
C5       C      0.116010000000     0.409300000000     0.658580000000     0          
C7       C      0.212200000000     0.392400000000     0.754640000000     0          
H2       H      0.189300000000     0.394300000000     0.761000000000     0          
O4       O      0.107900000000     0.410100000000     0.691800000000     0          
Zr1      Zr     0.312810000000     0.375000000000     0.875000000000     0          
C1       C      0.296010000000     0.377640000000     0.796010000000     0          
C2       C      0.269730000000     0.383600000000     0.769730000000     0          
C4       C      0.149780000000     0.408500000000     0.649780000000     0          
C6       C      0.221140000000     0.395700000000     0.721140000000     0          
C8       C      0.195960000000     0.400500000000     0.695960000000     0          
C9       C      0.175010000000     0.405200000000     0.675010000000     0          
O2       O      0.124570000000     0.035890000000     0.076180000000     0          
C3       C      0.113800000000     0.986460000000     0.028990000000     0          
H1       H      0.116200000000     0.980200000000     0.051900000000     0          
C5       C      0.090700000000     0.866010000000     0.908580000000     0          
C7       C      0.107600000000     0.962200000000     0.004640000000     0          
H2       H      0.105700000000     0.939300000000     0.011000000000     0          
O4       O      0.089900000000     0.857900000000     0.941800000000     0          
C1       C      0.122360000000     0.046010000000     0.046010000000     0          
C2       C      0.116400000000     0.019730000000     0.019730000000     0          
C4       C      0.091500000000     0.899780000000     0.899780000000     0          
C6       C      0.104300000000     0.971140000000     0.971140000000     0          
C8       C      0.099500000000     0.945960000000     0.945960000000     0          
C9       C      0.094800000000     0.925010000000     0.925010000000     0          
O2       O      0.464110000000     0.874570000000     0.326180000000     0          
C3       C      0.513540000000     0.863800000000     0.278990000000     0          
H1       H      0.519800000000     0.866200000000     0.301900000000     0          
C5       C      0.633990000000     0.840700000000     0.158580000000     0          
C7       C      0.537800000000     0.857600000000     0.254640000000     0          
H2       H      0.560700000000     0.855700000000     0.261000000000     0          
O4       O      0.642100000000     0.839900000000     0.191800000000     0          
C1       C      0.453990000000     0.872360000000     0.296010000000     0          
C2       C      0.480270000000     0.866400000000     0.269730000000     0          
C4       C      0.600220000000     0.841500000000     0.149780000000     0          
C6       C      0.528860000000     0.854300000000     0.221140000000     0          
C8       C      0.554040000000     0.849500000000     0.195960000000     0          
C9       C      0.574990000000     0.844800000000     0.175010000000     0          
O2       O      0.625430000000     0.035890000000     0.673820000000     0          
C3       C      0.636200000000     0.986460000000     0.721010000000     0          
H1       H      0.633800000000     0.980200000000     0.698100000000     0          
C5       C      0.659300000000     0.866010000000     0.841420000000     0          
C7       C      0.642400000000     0.962200000000     0.745360000000     0          
H2       H      0.644300000000     0.939300000000     0.739000000000     0          
O4       O      0.660100000000     0.857900000000     0.808200000000     0          
C1       C      0.627640000000     0.046010000000     0.703990000000     0          
C2       C      0.633600000000     0.019730000000     0.730270000000     0          
C4       C      0.658500000000     0.899780000000     0.850220000000     0          
C6       C      0.645700000000     0.971140000000     0.778860000000     0          
C8       C      0.650500000000     0.945960000000     0.804040000000     0          
C9       C      0.655200000000     0.925010000000     0.824990000000     0          
O2       O      0.464110000000     0.375430000000     0.923820000000     0          
C3       C      0.513540000000     0.386200000000     0.971010000000     0          
H1       H      0.519800000000     0.383800000000     0.948100000000     0          
C5       C      0.633990000000     0.409300000000     0.091420000000     0          
C7       C      0.537800000000     0.392400000000     0.995360000000     0          
H2       H      0.560700000000     0.394300000000     0.989000000000     0          
O4       O      0.642100000000     0.410100000000     0.058200000000     0          
O2       O      0.124570000000     0.214110000000     0.173820000000     0          
C3       C      0.113800000000     0.263540000000     0.221010000000     0          
H1       H      0.116200000000     0.269800000000     0.198100000000     0          
C5       C      0.090700000000     0.383990000000     0.341420000000     0          
C7       C      0.107600000000     0.287800000000     0.245360000000     0          
H2       H      0.105700000000     0.310700000000     0.239000000000     0          
O4       O      0.089900000000     0.392100000000     0.308200000000     0          
C1       C      0.122360000000     0.203990000000     0.203990000000     0          
C2       C      0.116400000000     0.230270000000     0.230270000000     0          
C4       C      0.091500000000     0.350220000000     0.350220000000     0          
C6       C      0.104300000000     0.278860000000     0.278860000000     0          
C8       C      0.099500000000     0.304040000000     0.304040000000     0          
C9       C      0.094800000000     0.324990000000     0.324990000000     0          
O2       O      0.285890000000     0.874570000000     0.423820000000     0          
C3       C      0.236460000000     0.863800000000     0.471010000000     0          
H1       H      0.230200000000     0.866200000000     0.448100000000     0          
C5       C      0.116010000000     0.840700000000     0.591420000000     0          
C7       C      0.212200000000     0.857600000000     0.495360000000     0          
H2       H      0.189300000000     0.855700000000     0.489000000000     0          
O4       O      0.107900000000     0.839900000000     0.558200000000     0          
Zr1      Zr     0.312810000000     0.875000000000     0.375000000000     0          
C1       C      0.296010000000     0.872360000000     0.453990000000     0          
C2       C      0.269730000000     0.866400000000     0.480270000000     0          
C4       C      0.149780000000     0.841500000000     0.600220000000     0          
C6       C      0.221140000000     0.854300000000     0.528860000000     0          
C8       C      0.195960000000     0.849500000000     0.554040000000     0          
C9       C      0.175010000000     0.844800000000     0.574990000000     0          
O2       O      0.576180000000     0.125430000000     0.714110000000     0          
C3       C      0.528990000000     0.136200000000     0.763540000000     0          
H1       H      0.551900000000     0.133800000000     0.769800000000     0          
C5       C      0.408580000000     0.159300000000     0.883990000000     0          
C7       C      0.504640000000     0.142400000000     0.787800000000     0          
H2       H      0.511000000000     0.144300000000     0.810700000000     0          
O4       O      0.441800000000     0.160100000000     0.892100000000     0          
C1       C      0.546010000000     0.127640000000     0.703990000000     0          
C2       C      0.519730000000     0.133600000000     0.730270000000     0          
C4       C      0.399780000000     0.158500000000     0.850220000000     0          
C6       C      0.471140000000     0.145700000000     0.778860000000     0          
C8       C      0.445960000000     0.150500000000     0.804040000000     0          
C9       C      0.425010000000     0.155200000000     0.824990000000     0          
O2       O      0.076180000000     0.624570000000     0.535890000000     0          
C3       C      0.028990000000     0.613800000000     0.486460000000     0          
H1       H      0.051900000000     0.616200000000     0.480200000000     0          
C5       C      0.908580000000     0.590700000000     0.366010000000     0          
C7       C      0.004640000000     0.607600000000     0.462200000000     0          
H2       H      0.011000000000     0.605700000000     0.439300000000     0          
O4       O      0.941800000000     0.589900000000     0.357900000000     0          
O2       O      0.875430000000     0.826180000000     0.785890000000     0          
C3       C      0.886200000000     0.778990000000     0.736460000000     0          
H1       H      0.883800000000     0.801900000000     0.730200000000     0          
C5       C      0.909300000000     0.658580000000     0.616010000000     0          
C7       C      0.892400000000     0.754640000000     0.712200000000     0          
H2       H      0.894300000000     0.761000000000     0.689300000000     0          
O4       O      0.910100000000     0.691800000000     0.607900000000     0          
C1       C      0.877640000000     0.796010000000     0.796010000000     0          
C2       C      0.883600000000     0.769730000000     0.769730000000     0          
C4       C      0.908500000000     0.649780000000     0.649780000000     0          
C6       C      0.895700000000     0.721140000000     0.721140000000     0          
C8       C      0.900500000000     0.695960000000     0.695960000000     0          
C9       C      0.905200000000     0.675010000000     0.675010000000     0          
O2       O      0.673820000000     0.625430000000     0.035890000000     0          
C3       C      0.721010000000     0.636200000000     0.986460000000     0          
H1       H      0.698100000000     0.633800000000     0.980200000000     0          
C5       C      0.841420000000     0.659300000000     0.866010000000     0          
C7       C      0.745360000000     0.642400000000     0.962200000000     0          
H2       H      0.739000000000     0.644300000000     0.939300000000     0          
O4       O      0.808200000000     0.660100000000     0.857900000000     0          
C1       C      0.703990000000     0.627640000000     0.046010000000     0          
C2       C      0.730270000000     0.633600000000     0.019730000000     0          
C4       C      0.850220000000     0.658500000000     0.899780000000     0          
C6       C      0.778860000000     0.645700000000     0.971140000000     0          
C8       C      0.804040000000     0.650500000000     0.945960000000     0          
C9       C      0.824990000000     0.655200000000     0.925010000000     0          
O2       O      0.374570000000     0.423820000000     0.785890000000     0          
C3       C      0.363800000000     0.471010000000     0.736460000000     0          
H1       H      0.366200000000     0.448100000000     0.730200000000     0          
C5       C      0.340700000000     0.591420000000     0.616010000000     0          
C7       C      0.357600000000     0.495360000000     0.712200000000     0          
H2       H      0.355700000000     0.489000000000     0.689300000000     0          
O4       O      0.339900000000     0.558200000000     0.607900000000     0          
C1       C      0.372360000000     0.453990000000     0.796010000000     0          
C2       C      0.366400000000     0.480270000000     0.769730000000     0          
C4       C      0.341500000000     0.600220000000     0.649780000000     0          
C6       C      0.354300000000     0.528860000000     0.721140000000     0          
C8       C      0.349500000000     0.554040000000     0.695960000000     0          
C9       C      0.344800000000     0.574990000000     0.675010000000     0          
O2       O      0.673820000000     0.124570000000     0.714110000000     0          
C3       C      0.721010000000     0.113800000000     0.763540000000     0          
H1       H      0.698100000000     0.116200000000     0.769800000000     0          
C5       C      0.841420000000     0.090700000000     0.883990000000     0          
C7       C      0.745360000000     0.107600000000     0.787800000000     0          
H2       H      0.739000000000     0.105700000000     0.810700000000     0          
O4       O      0.808200000000     0.089900000000     0.892100000000     0          
C1       C      0.703990000000     0.122360000000     0.703990000000     0          
C2       C      0.730270000000     0.116400000000     0.730270000000     0          
C4       C      0.850220000000     0.091500000000     0.850220000000     0          
C6       C      0.778860000000     0.104300000000     0.778860000000     0          
C8       C      0.804040000000     0.099500000000     0.804040000000     0          
C9       C      0.824990000000     0.094800000000     0.824990000000     0          
O2       O      0.875430000000     0.923820000000     0.964110000000     0          
C3       C      0.886200000000     0.971010000000     0.013540000000     0          
H1       H      0.883800000000     0.948100000000     0.019800000000     0          
C5       C      0.909300000000     0.091420000000     0.133990000000     0          
C7       C      0.892400000000     0.995360000000     0.037800000000     0          
H2       H      0.894300000000     0.989000000000     0.060700000000     0          
O4       O      0.910100000000     0.058200000000     0.142100000000     0          
C1       C      0.877640000000     0.953990000000     0.953990000000     0          
C2       C      0.883600000000     0.980270000000     0.980270000000     0          
C4       C      0.908500000000     0.100220000000     0.100220000000     0          
C6       C      0.895700000000     0.028860000000     0.028860000000     0          
C8       C      0.900500000000     0.054040000000     0.054040000000     0          
C9       C      0.905200000000     0.074990000000     0.074990000000     0          
O2       O      0.874570000000     0.326180000000     0.464110000000     0          
C3       C      0.863800000000     0.278990000000     0.513540000000     0          
H1       H      0.866200000000     0.301900000000     0.519800000000     0          
C5       C      0.840700000000     0.158580000000     0.633990000000     0          
C7       C      0.857600000000     0.254640000000     0.537800000000     0          
H2       H      0.855700000000     0.261000000000     0.560700000000     0          
O4       O      0.839900000000     0.191800000000     0.642100000000     0          
O2       O      0.285890000000     0.923820000000     0.374570000000     0          
C3       C      0.236460000000     0.971010000000     0.363800000000     0          
H1       H      0.230200000000     0.948100000000     0.366200000000     0          
C5       C      0.116010000000     0.091420000000     0.340700000000     0          
C7       C      0.212200000000     0.995360000000     0.357600000000     0          
H2       H      0.189300000000     0.989000000000     0.355700000000     0          
O4       O      0.107900000000     0.058200000000     0.339900000000     0          
C1       C      0.296010000000     0.953990000000     0.372360000000     0          
C2       C      0.269730000000     0.980270000000     0.366400000000     0          
C4       C      0.149780000000     0.100220000000     0.341500000000     0          
C6       C      0.221140000000     0.028860000000     0.354300000000     0          
C8       C      0.195960000000     0.054040000000     0.349500000000     0          
C9       C      0.175010000000     0.074990000000     0.344800000000     0          
O2       O      0.576180000000     0.535890000000     0.124570000000     0          
C3       C      0.528990000000     0.486460000000     0.113800000000     0          
H1       H      0.551900000000     0.480200000000     0.116200000000     0          
C5       C      0.408580000000     0.366010000000     0.090700000000     0          
C7       C      0.504640000000     0.462200000000     0.107600000000     0          
H2       H      0.511000000000     0.439300000000     0.105700000000     0          
O4       O      0.441800000000     0.357900000000     0.089900000000     0          
O2       O      0.964110000000     0.826180000000     0.874570000000     0          
C3       C      0.013540000000     0.778990000000     0.863800000000     0          
H1       H      0.019800000000     0.801900000000     0.866200000000     0          
C5       C      0.133990000000     0.658580000000     0.840700000000     0          
C7       C      0.037800000000     0.754640000000     0.857600000000     0          
H2       H      0.060700000000     0.761000000000     0.855700000000     0          
O4       O      0.142100000000     0.691800000000     0.839900000000     0          
O2       O      0.673820000000     0.214110000000     0.624570000000     0          
C3       C      0.721010000000     0.263540000000     0.613800000000     0          
H1       H      0.698100000000     0.269800000000     0.616200000000     0          
C5       C      0.841420000000     0.383990000000     0.590700000000     0          
C7       C      0.745360000000     0.287800000000     0.607600000000     0          
H2       H      0.739000000000     0.310700000000     0.605700000000     0          
O4       O      0.808200000000     0.392100000000     0.589900000000     0          
O2       O      0.285890000000     0.826180000000     0.375430000000     0          
C3       C      0.236460000000     0.778990000000     0.386200000000     0          
H1       H      0.230200000000     0.801900000000     0.383800000000     0          
C5       C      0.116010000000     0.658580000000     0.409300000000     0          
C7       C      0.212200000000     0.754640000000     0.392400000000     0          
H2       H      0.189300000000     0.761000000000     0.394300000000     0          
O4       O      0.107900000000     0.691800000000     0.410100000000     0          
O2       O      0.673820000000     0.535890000000     0.125430000000     0          
C3       C      0.721010000000     0.486460000000     0.136200000000     0          
H1       H      0.698100000000     0.480200000000     0.133800000000     0          
C5       C      0.841420000000     0.366010000000     0.159300000000     0          
C7       C      0.745360000000     0.462200000000     0.142400000000     0          
H2       H      0.739000000000     0.439300000000     0.144300000000     0          
O4       O      0.808200000000     0.357900000000     0.160100000000     0          
C1       C      0.703990000000     0.546010000000     0.127640000000     0          
C2       C      0.730270000000     0.519730000000     0.133600000000     0          
C4       C      0.850220000000     0.399780000000     0.158500000000     0          
C6       C      0.778860000000     0.471140000000     0.145700000000     0          
C8       C      0.804040000000     0.445960000000     0.150500000000     0          
C9       C      0.824990000000     0.425010000000     0.155200000000     0          
O2       O      0.964110000000     0.923820000000     0.875430000000     0          
C3       C      0.013540000000     0.971010000000     0.886200000000     0          
H1       H      0.019800000000     0.948100000000     0.883800000000     0          
C5       C      0.133990000000     0.091420000000     0.909300000000     0          
C7       C      0.037800000000     0.995360000000     0.892400000000     0          
H2       H      0.060700000000     0.989000000000     0.894300000000     0          
O4       O      0.142100000000     0.058200000000     0.910100000000     0          
O2       O      0.576180000000     0.214110000000     0.625430000000     0          
C3       C      0.528990000000     0.263540000000     0.636200000000     0          
H1       H      0.551900000000     0.269800000000     0.633800000000     0          
C5       C      0.408580000000     0.383990000000     0.659300000000     0          
C7       C      0.504640000000     0.287800000000     0.642400000000     0          
H2       H      0.511000000000     0.310700000000     0.644300000000     0          
O4       O      0.441800000000     0.392100000000     0.660100000000     0          
O2       O      0.374570000000     0.785890000000     0.423820000000     0          
C3       C      0.363800000000     0.736460000000     0.471010000000     0          
H1       H      0.366200000000     0.730200000000     0.448100000000     0          
C5       C      0.340700000000     0.616010000000     0.591420000000     0          
C7       C      0.357600000000     0.712200000000     0.495360000000     0          
H2       H      0.355700000000     0.689300000000     0.489000000000     0          
O4       O      0.339900000000     0.607900000000     0.558200000000     0          
O2       O      0.714110000000     0.624570000000     0.173820000000     0          
C3       C      0.763540000000     0.613800000000     0.221010000000     0          
H1       H      0.769800000000     0.616200000000     0.198100000000     0          
C5       C      0.883990000000     0.590700000000     0.341420000000     0          
C7       C      0.787800000000     0.607600000000     0.245360000000     0          
H2       H      0.810700000000     0.605700000000     0.239000000000     0          
O4       O      0.892100000000     0.589900000000     0.308200000000     0          
Zr1      Zr     0.687190000000     0.625000000000     0.125000000000     0          
C1       C      0.703990000000     0.622360000000     0.203990000000     0          
C2       C      0.730270000000     0.616400000000     0.230270000000     0          
C4       C      0.850220000000     0.591500000000     0.350220000000     0          
C6       C      0.778860000000     0.604300000000     0.278860000000     0          
C8       C      0.804040000000     0.599500000000     0.304040000000     0          
C9       C      0.824990000000     0.594800000000     0.324990000000     0          
O2       O      0.875430000000     0.964110000000     0.923820000000     0          
C3       C      0.886200000000     0.013540000000     0.971010000000     0          
H1       H      0.883800000000     0.019800000000     0.948100000000     0          
C5       C      0.909300000000     0.133990000000     0.091420000000     0          
C7       C      0.892400000000     0.037800000000     0.995360000000     0          
H2       H      0.894300000000     0.060700000000     0.989000000000     0          
O4       O      0.910100000000     0.142100000000     0.058200000000     0          
O2       O      0.535890000000     0.125430000000     0.673820000000     0          
C3       C      0.486460000000     0.136200000000     0.721010000000     0          
H1       H      0.480200000000     0.133800000000     0.698100000000     0          
C5       C      0.366010000000     0.159300000000     0.841420000000     0          
C7       C      0.462200000000     0.142400000000     0.745360000000     0          
H2       H      0.439300000000     0.144300000000     0.739000000000     0          
O4       O      0.357900000000     0.160100000000     0.808200000000     0          
O2       O      0.374570000000     0.964110000000     0.326180000000     0          
C3       C      0.363800000000     0.013540000000     0.278990000000     0          
H1       H      0.366200000000     0.019800000000     0.301900000000     0          
C5       C      0.340700000000     0.133990000000     0.158580000000     0          
C7       C      0.357600000000     0.037800000000     0.254640000000     0          
H2       H      0.355700000000     0.060700000000     0.261000000000     0          
O4       O      0.339900000000     0.142100000000     0.191800000000     0          
C1       C      0.372360000000     0.953990000000     0.296010000000     0          
C2       C      0.366400000000     0.980270000000     0.269730000000     0          
C4       C      0.341500000000     0.100220000000     0.149780000000     0          
C6       C      0.354300000000     0.028860000000     0.221140000000     0          
C8       C      0.349500000000     0.054040000000     0.195960000000     0          
C9       C      0.344800000000     0.074990000000     0.175010000000     0          
O2       O      0.535890000000     0.624570000000     0.076180000000     0          
C3       C      0.486460000000     0.613800000000     0.028990000000     0          
H1       H      0.480200000000     0.616200000000     0.051900000000     0          
C5       C      0.366010000000     0.590700000000     0.908580000000     0          
C7       C      0.462200000000     0.607600000000     0.004640000000     0          
H2       H      0.439300000000     0.605700000000     0.011000000000     0          
O4       O      0.357900000000     0.589900000000     0.941800000000     0          
O2       O      0.875430000000     0.785890000000     0.826180000000     0          
C3       C      0.886200000000     0.736460000000     0.778990000000     0          
H1       H      0.883800000000     0.730200000000     0.801900000000     0          
C5       C      0.909300000000     0.616010000000     0.658580000000     0          
C7       C      0.892400000000     0.712200000000     0.754640000000     0          
H2       H      0.894300000000     0.689300000000     0.761000000000     0          
O4       O      0.910100000000     0.607900000000     0.691800000000     0          
O2       O      0.714110000000     0.125430000000     0.576180000000     0          
C3       C      0.763540000000     0.136200000000     0.528990000000     0          
H1       H      0.769800000000     0.133800000000     0.551900000000     0          
C5       C      0.883990000000     0.159300000000     0.408580000000     0          
C7       C      0.787800000000     0.142400000000     0.504640000000     0          
H2       H      0.810700000000     0.144300000000     0.511000000000     0          
O4       O      0.892100000000     0.160100000000     0.441800000000     0          
C1       C      0.703990000000     0.127640000000     0.546010000000     0          
C2       C      0.730270000000     0.133600000000     0.519730000000     0          
C4       C      0.850220000000     0.158500000000     0.399780000000     0          
C6       C      0.778860000000     0.145700000000     0.471140000000     0          
C8       C      0.804040000000     0.150500000000     0.445960000000     0          
C9       C      0.824990000000     0.155200000000     0.425010000000     0          
O2       O      0.423820000000     0.874570000000     0.285890000000     0          
C3       C      0.471010000000     0.863800000000     0.236460000000     0          
H1       H      0.448100000000     0.866200000000     0.230200000000     0          
C5       C      0.591420000000     0.840700000000     0.116010000000     0          
C7       C      0.495360000000     0.857600000000     0.212200000000     0          
H2       H      0.489000000000     0.855700000000     0.189300000000     0          
O4       O      0.558200000000     0.839900000000     0.107900000000     0          
O2       O      0.923820000000     0.375430000000     0.464110000000     0          
C3       C      0.971010000000     0.386200000000     0.513540000000     0          
H1       H      0.948100000000     0.383800000000     0.519800000000     0          
C5       C      0.091420000000     0.409300000000     0.633990000000     0          
C7       C      0.995360000000     0.392400000000     0.537800000000     0          
H2       H      0.989000000000     0.394300000000     0.560700000000     0          
O4       O      0.058200000000     0.410100000000     0.642100000000     0          
O2       O      0.124570000000     0.173820000000     0.214110000000     0          
C3       C      0.113800000000     0.221010000000     0.263540000000     0          
H1       H      0.116200000000     0.198100000000     0.269800000000     0          
C5       C      0.090700000000     0.341420000000     0.383990000000     0          
C7       C      0.107600000000     0.245360000000     0.287800000000     0          
H2       H      0.105700000000     0.239000000000     0.310700000000     0          
O4       O      0.089900000000     0.308200000000     0.392100000000     0          
O2       O      0.326180000000     0.374570000000     0.964110000000     0          
C3       C      0.278990000000     0.363800000000     0.013540000000     0          
H1       H      0.301900000000     0.366200000000     0.019800000000     0          
C5       C      0.158580000000     0.340700000000     0.133990000000     0          
C7       C      0.254640000000     0.357600000000     0.037800000000     0          
H2       H      0.261000000000     0.355700000000     0.060700000000     0          
O4       O      0.191800000000     0.339900000000     0.142100000000     0          
C1       C      0.296010000000     0.372360000000     0.953990000000     0          
C2       C      0.269730000000     0.366400000000     0.980270000000     0          
C4       C      0.149780000000     0.341500000000     0.100220000000     0          
C6       C      0.221140000000     0.354300000000     0.028860000000     0          
C8       C      0.195960000000     0.349500000000     0.054040000000     0          
C9       C      0.175010000000     0.344800000000     0.074990000000     0          
O2       O      0.625430000000     0.576180000000     0.214110000000     0          
C3       C      0.636200000000     0.528990000000     0.263540000000     0          
H1       H      0.633800000000     0.551900000000     0.269800000000     0          
C5       C      0.659300000000     0.408580000000     0.383990000000     0          
C7       C      0.642400000000     0.504640000000     0.287800000000     0          
H2       H      0.644300000000     0.511000000000     0.310700000000     0          
O4       O      0.660100000000     0.441800000000     0.392100000000     0          
C1       C      0.627640000000     0.546010000000     0.203990000000     0          
C2       C      0.633600000000     0.519730000000     0.230270000000     0          
C4       C      0.658500000000     0.399780000000     0.350220000000     0          
C6       C      0.645700000000     0.471140000000     0.278860000000     0          
C8       C      0.650500000000     0.445960000000     0.304040000000     0          
C9       C      0.655200000000     0.425010000000     0.324990000000     0          
O2       O      0.326180000000     0.875430000000     0.285890000000     0          
C3       C      0.278990000000     0.886200000000     0.236460000000     0          
H1       H      0.301900000000     0.883800000000     0.230200000000     0          
C5       C      0.158580000000     0.909300000000     0.116010000000     0          
C7       C      0.254640000000     0.892400000000     0.212200000000     0          
H2       H      0.261000000000     0.894300000000     0.189300000000     0          
O4       O      0.191800000000     0.910100000000     0.107900000000     0          
C1       C      0.296010000000     0.877640000000     0.296010000000     0          
C2       C      0.269730000000     0.883600000000     0.269730000000     0          
C4       C      0.149780000000     0.908500000000     0.149780000000     0          
C6       C      0.221140000000     0.895700000000     0.221140000000     0          
C8       C      0.195960000000     0.900500000000     0.195960000000     0          
C9       C      0.175010000000     0.905200000000     0.175010000000     0          
O2       O      0.124570000000     0.076180000000     0.035890000000     0          
C3       C      0.113800000000     0.028990000000     0.986460000000     0          
H1       H      0.116200000000     0.051900000000     0.980200000000     0          
C5       C      0.090700000000     0.908580000000     0.866010000000     0          
C7       C      0.107600000000     0.004640000000     0.962200000000     0          
H2       H      0.105700000000     0.011000000000     0.939300000000     0          
O4       O      0.089900000000     0.941800000000     0.857900000000     0          
O2       O      0.125430000000     0.673820000000     0.535890000000     0          
C3       C      0.136200000000     0.721010000000     0.486460000000     0          
H1       H      0.133800000000     0.698100000000     0.480200000000     0          
C5       C      0.159300000000     0.841420000000     0.366010000000     0          
C7       C      0.142400000000     0.745360000000     0.462200000000     0          
H2       H      0.144300000000     0.739000000000     0.439300000000     0          
O4       O      0.160100000000     0.808200000000     0.357900000000     0          
O2       O      0.714110000000     0.576180000000     0.125430000000     0          
C3       C      0.763540000000     0.528990000000     0.136200000000     0          
H1       H      0.769800000000     0.551900000000     0.133800000000     0          
C5       C      0.883990000000     0.408580000000     0.159300000000     0          
C7       C      0.787800000000     0.504640000000     0.142400000000     0          
H2       H      0.810700000000     0.511000000000     0.144300000000     0          
O4       O      0.892100000000     0.441800000000     0.160100000000     0          
O2       O      0.423820000000     0.964110000000     0.375430000000     0          
C3       C      0.471010000000     0.013540000000     0.386200000000     0          
H1       H      0.448100000000     0.019800000000     0.383800000000     0          
C5       C      0.591420000000     0.133990000000     0.409300000000     0          
C7       C      0.495360000000     0.037800000000     0.392400000000     0          
H2       H      0.489000000000     0.060700000000     0.394300000000     0          
O4       O      0.558200000000     0.142100000000     0.410100000000     0          
O2       O      0.035890000000     0.673820000000     0.625430000000     0          
C3       C      0.986460000000     0.721010000000     0.636200000000     0          
H1       H      0.980200000000     0.698100000000     0.633800000000     0          
C5       C      0.866010000000     0.841420000000     0.659300000000     0          
C7       C      0.962200000000     0.745360000000     0.642400000000     0          
H2       H      0.939300000000     0.739000000000     0.644300000000     0          
O4       O      0.857900000000     0.808200000000     0.660100000000     0          
O2       O      0.326180000000     0.285890000000     0.875430000000     0          
C3       C      0.278990000000     0.236460000000     0.886200000000     0          
H1       H      0.301900000000     0.230200000000     0.883800000000     0          
C5       C      0.158580000000     0.116010000000     0.909300000000     0          
C7       C      0.254640000000     0.212200000000     0.892400000000     0          
H2       H      0.261000000000     0.189300000000     0.894300000000     0          
O4       O      0.191800000000     0.107900000000     0.910100000000     0          
C1       C      0.296010000000     0.296010000000     0.877640000000     0          
C2       C      0.269730000000     0.269730000000     0.883600000000     0          
C4       C      0.149780000000     0.149780000000     0.908500000000     0          
C6       C      0.221140000000     0.221140000000     0.895700000000     0          
C8       C      0.195960000000     0.195960000000     0.900500000000     0          
C9       C      0.175010000000     0.175010000000     0.905200000000     0          
O2       O      0.714110000000     0.673820000000     0.124570000000     0          
C3       C      0.763540000000     0.721010000000     0.113800000000     0          
H1       H      0.769800000000     0.698100000000     0.116200000000     0          
C5       C      0.883990000000     0.841420000000     0.090700000000     0          
C7       C      0.787800000000     0.745360000000     0.107600000000     0          
H2       H      0.810700000000     0.739000000000     0.105700000000     0          
O4       O      0.892100000000     0.808200000000     0.089900000000     0          
C1       C      0.703990000000     0.703990000000     0.122360000000     0          
C2       C      0.730270000000     0.730270000000     0.116400000000     0          
C4       C      0.850220000000     0.850220000000     0.091500000000     0          
C6       C      0.778860000000     0.778860000000     0.104300000000     0          
C8       C      0.804040000000     0.804040000000     0.099500000000     0          
C9       C      0.824990000000     0.824990000000     0.094800000000     0          
O2       O      0.326180000000     0.964110000000     0.374570000000     0          
C3       C      0.278990000000     0.013540000000     0.363800000000     0          
H1       H      0.301900000000     0.019800000000     0.366200000000     0          
C5       C      0.158580000000     0.133990000000     0.340700000000     0          
C7       C      0.254640000000     0.037800000000     0.357600000000     0          
H2       H      0.261000000000     0.060700000000     0.355700000000     0          
O4       O      0.191800000000     0.142100000000     0.339900000000     0          
O2       O      0.035890000000     0.576180000000     0.624570000000     0          
C3       C      0.986460000000     0.528990000000     0.613800000000     0          
H1       H      0.980200000000     0.551900000000     0.616200000000     0          
C5       C      0.866010000000     0.408580000000     0.590700000000     0          
C7       C      0.962200000000     0.504640000000     0.607600000000     0          
H2       H      0.939300000000     0.511000000000     0.605700000000     0          
O4       O      0.857900000000     0.441800000000     0.589900000000     0          
O2       O      0.423820000000     0.285890000000     0.874570000000     0          
C3       C      0.471010000000     0.236460000000     0.863800000000     0          
H1       H      0.448100000000     0.230200000000     0.866200000000     0          
C5       C      0.591420000000     0.116010000000     0.840700000000     0          
C7       C      0.495360000000     0.212200000000     0.857600000000     0          
H2       H      0.489000000000     0.189300000000     0.855700000000     0          
O4       O      0.558200000000     0.107900000000     0.839900000000     0          
O2       O      0.625430000000     0.714110000000     0.076180000000     0          
C3       C      0.636200000000     0.763540000000     0.028990000000     0          
H1       H      0.633800000000     0.769800000000     0.051900000000     0          
C5       C      0.659300000000     0.883990000000     0.908580000000     0          
C7       C      0.642400000000     0.787800000000     0.004640000000     0          
H2       H      0.644300000000     0.810700000000     0.011000000000     0          
O4       O      0.660100000000     0.892100000000     0.941800000000     0          
O2       O      0.285890000000     0.875430000000     0.326180000000     0          
C3       C      0.236460000000     0.886200000000     0.278990000000     0          
H1       H      0.230200000000     0.883800000000     0.301900000000     0          
C5       C      0.116010000000     0.909300000000     0.158580000000     0          
C7       C      0.212200000000     0.892400000000     0.254640000000     0          
H2       H      0.189300000000     0.894300000000     0.261000000000     0          
O4       O      0.107900000000     0.910100000000     0.191800000000     0          
O2       O      0.124570000000     0.535890000000     0.576180000000     0          
C3       C      0.113800000000     0.486460000000     0.528990000000     0          
H1       H      0.116200000000     0.480200000000     0.551900000000     0          
C5       C      0.090700000000     0.366010000000     0.408580000000     0          
C7       C      0.107600000000     0.462200000000     0.504640000000     0          
H2       H      0.105700000000     0.439300000000     0.511000000000     0          
O4       O      0.089900000000     0.357900000000     0.441800000000     0          
C1       C      0.122360000000     0.546010000000     0.546010000000     0          
C2       C      0.116400000000     0.519730000000     0.519730000000     0          
C4       C      0.091500000000     0.399780000000     0.399780000000     0          
C6       C      0.104300000000     0.471140000000     0.471140000000     0          
C8       C      0.099500000000     0.445960000000     0.445960000000     0          
C9       C      0.094800000000     0.425010000000     0.425010000000     0          
O2       O      0.464110000000     0.374570000000     0.826180000000     0          
C3       C      0.513540000000     0.363800000000     0.778990000000     0          
H1       H      0.519800000000     0.366200000000     0.801900000000     0          
C5       C      0.633990000000     0.340700000000     0.658580000000     0          
C7       C      0.537800000000     0.357600000000     0.754640000000     0          
H2       H      0.560700000000     0.355700000000     0.761000000000     0          
O4       O      0.642100000000     0.339900000000     0.691800000000     0          
C1       C      0.453990000000     0.372360000000     0.796010000000     0          
C2       C      0.480270000000     0.366400000000     0.769730000000     0          
C4       C      0.600220000000     0.341500000000     0.649780000000     0          
C6       C      0.528860000000     0.354300000000     0.721140000000     0          
C8       C      0.554040000000     0.349500000000     0.695960000000     0          
C9       C      0.574990000000     0.344800000000     0.675010000000     0          
O2       O      0.625430000000     0.535890000000     0.173820000000     0          
C3       C      0.636200000000     0.486460000000     0.221010000000     0          
H1       H      0.633800000000     0.480200000000     0.198100000000     0          
C5       C      0.659300000000     0.366010000000     0.341420000000     0          
C7       C      0.642400000000     0.462200000000     0.245360000000     0          
H2       H      0.644300000000     0.439300000000     0.239000000000     0          
O4       O      0.660100000000     0.357900000000     0.308200000000     0          
O2       O      0.464110000000     0.875430000000     0.423820000000     0          
C3       C      0.513540000000     0.886200000000     0.471010000000     0          
H1       H      0.519800000000     0.883800000000     0.448100000000     0          
C5       C      0.633990000000     0.909300000000     0.591420000000     0          
C7       C      0.537800000000     0.892400000000     0.495360000000     0          
H2       H      0.560700000000     0.894300000000     0.489000000000     0          
O4       O      0.642100000000     0.910100000000     0.558200000000     0          
O2       O      0.124570000000     0.714110000000     0.673820000000     0          
C3       C      0.113800000000     0.763540000000     0.721010000000     0          
H1       H      0.116200000000     0.769800000000     0.698100000000     0          
C5       C      0.090700000000     0.883990000000     0.841420000000     0          
C7       C      0.107600000000     0.787800000000     0.745360000000     0          
H2       H      0.105700000000     0.810700000000     0.739000000000     0          
O4       O      0.089900000000     0.892100000000     0.808200000000     0          
C1       C      0.122360000000     0.703990000000     0.703990000000     0          
C2       C      0.116400000000     0.730270000000     0.730270000000     0          
C4       C      0.091500000000     0.850220000000     0.850220000000     0          
C6       C      0.104300000000     0.778860000000     0.778860000000     0          
C8       C      0.099500000000     0.804040000000     0.804040000000     0          
C9       C      0.094800000000     0.824990000000     0.824990000000     0          
O2       O      0.285890000000     0.374570000000     0.923820000000     0          
C3       C      0.236460000000     0.363800000000     0.971010000000     0          
H1       H      0.230200000000     0.366200000000     0.948100000000     0          
C5       C      0.116010000000     0.340700000000     0.091420000000     0          
C7       C      0.212200000000     0.357600000000     0.995360000000     0          
H2       H      0.189300000000     0.355700000000     0.989000000000     0          
O4       O      0.107900000000     0.339900000000     0.058200000000     0          
O2       O      0.576180000000     0.625430000000     0.214110000000     0          
C3       C      0.528990000000     0.636200000000     0.263540000000     0          
H1       H      0.551900000000     0.633800000000     0.269800000000     0          
C5       C      0.408580000000     0.659300000000     0.383990000000     0          
C7       C      0.504640000000     0.642400000000     0.287800000000     0          
H2       H      0.511000000000     0.644300000000     0.310700000000     0          
O4       O      0.441800000000     0.660100000000     0.392100000000     0          
C1       C      0.546010000000     0.627640000000     0.203990000000     0          
C2       C      0.519730000000     0.633600000000     0.230270000000     0          
C4       C      0.399780000000     0.658500000000     0.350220000000     0          
C6       C      0.471140000000     0.645700000000     0.278860000000     0          
C8       C      0.445960000000     0.650500000000     0.304040000000     0          
C9       C      0.425010000000     0.655200000000     0.324990000000     0          
O2       O      0.076180000000     0.124570000000     0.035890000000     0          
C3       C      0.028990000000     0.113800000000     0.986460000000     0          
H1       H      0.051900000000     0.116200000000     0.980200000000     0          
C5       C      0.908580000000     0.090700000000     0.866010000000     0          
C7       C      0.004640000000     0.107600000000     0.962200000000     0          
H2       H      0.011000000000     0.105700000000     0.939300000000     0          
O4       O      0.941800000000     0.089900000000     0.857900000000     0          
O2       O      0.875430000000     0.326180000000     0.285890000000     0          
C3       C      0.886200000000     0.278990000000     0.236460000000     0          
H1       H      0.883800000000     0.301900000000     0.230200000000     0          
C5       C      0.909300000000     0.158580000000     0.116010000000     0          
C7       C      0.892400000000     0.254640000000     0.212200000000     0          
H2       H      0.894300000000     0.261000000000     0.189300000000     0          
O4       O      0.910100000000     0.191800000000     0.107900000000     0          
C1       C      0.877640000000     0.296010000000     0.296010000000     0          
C2       C      0.883600000000     0.269730000000     0.269730000000     0          
C4       C      0.908500000000     0.149780000000     0.149780000000     0          
C6       C      0.895700000000     0.221140000000     0.221140000000     0          
C8       C      0.900500000000     0.195960000000     0.195960000000     0          
C9       C      0.905200000000     0.175010000000     0.175010000000     0          
O2       O      0.673820000000     0.125430000000     0.535890000000     0          
C3       C      0.721010000000     0.136200000000     0.486460000000     0          
H1       H      0.698100000000     0.133800000000     0.480200000000     0          
C5       C      0.841420000000     0.159300000000     0.366010000000     0          
C7       C      0.745360000000     0.142400000000     0.462200000000     0          
H2       H      0.739000000000     0.144300000000     0.439300000000     0          
O4       O      0.808200000000     0.160100000000     0.357900000000     0          
O2       O      0.374570000000     0.923820000000     0.285890000000     0          
C3       C      0.363800000000     0.971010000000     0.236460000000     0          
H1       H      0.366200000000     0.948100000000     0.230200000000     0          
C5       C      0.340700000000     0.091420000000     0.116010000000     0          
C7       C      0.357600000000     0.995360000000     0.212200000000     0          
H2       H      0.355700000000     0.989000000000     0.189300000000     0          
O4       O      0.339900000000     0.058200000000     0.107900000000     0          
O2       O      0.673820000000     0.624570000000     0.214110000000     0          
C3       C      0.721010000000     0.613800000000     0.263540000000     0          
H1       H      0.698100000000     0.616200000000     0.269800000000     0          
C5       C      0.841420000000     0.590700000000     0.383990000000     0          
C7       C      0.745360000000     0.607600000000     0.287800000000     0          
H2       H      0.739000000000     0.605700000000     0.310700000000     0          
O4       O      0.808200000000     0.589900000000     0.392100000000     0          
O2       O      0.875430000000     0.423820000000     0.464110000000     0          
C3       C      0.886200000000     0.471010000000     0.513540000000     0          
H1       H      0.883800000000     0.448100000000     0.519800000000     0          
C5       C      0.909300000000     0.591420000000     0.633990000000     0          
C7       C      0.892400000000     0.495360000000     0.537800000000     0          
H2       H      0.894300000000     0.489000000000     0.560700000000     0          
O4       O      0.910100000000     0.558200000000     0.642100000000     0          
C1       C      0.877640000000     0.453990000000     0.453990000000     0          
C2       C      0.883600000000     0.480270000000     0.480270000000     0          
C4       C      0.908500000000     0.600220000000     0.600220000000     0          
C6       C      0.895700000000     0.528860000000     0.528860000000     0          
C8       C      0.900500000000     0.554040000000     0.554040000000     0          
C9       C      0.905200000000     0.574990000000     0.574990000000     0          
O2       O      0.874570000000     0.826180000000     0.964110000000     0          
C3       C      0.863800000000     0.778990000000     0.013540000000     0          
H1       H      0.866200000000     0.801900000000     0.019800000000     0          
C5       C      0.840700000000     0.658580000000     0.133990000000     0          
C7       C      0.857600000000     0.754640000000     0.037800000000     0          
H2       H      0.855700000000     0.761000000000     0.060700000000     0          
O4       O      0.839900000000     0.691800000000     0.142100000000     0          
O2       O      0.285890000000     0.423820000000     0.874570000000     0          
C3       C      0.236460000000     0.471010000000     0.863800000000     0          
H1       H      0.230200000000     0.448100000000     0.866200000000     0          
C5       C      0.116010000000     0.591420000000     0.840700000000     0          
C7       C      0.212200000000     0.495360000000     0.857600000000     0          
H2       H      0.189300000000     0.489000000000     0.855700000000     0          
O4       O      0.107900000000     0.558200000000     0.839900000000     0          
O2       O      0.576180000000     0.035890000000     0.624570000000     0          
C3       C      0.528990000000     0.986460000000     0.613800000000     0          
H1       H      0.551900000000     0.980200000000     0.616200000000     0          
C5       C      0.408580000000     0.866010000000     0.590700000000     0          
C7       C      0.504640000000     0.962200000000     0.607600000000     0          
H2       H      0.511000000000     0.939300000000     0.605700000000     0          
O4       O      0.441800000000     0.857900000000     0.589900000000     0          
O2       O      0.964110000000     0.326180000000     0.374570000000     0          
C3       C      0.013540000000     0.278990000000     0.363800000000     0          
H1       H      0.019800000000     0.301900000000     0.366200000000     0          
C5       C      0.133990000000     0.158580000000     0.340700000000     0          
C7       C      0.037800000000     0.254640000000     0.357600000000     0          
H2       H      0.060700000000     0.261000000000     0.355700000000     0          
O4       O      0.142100000000     0.191800000000     0.339900000000     0          
O2       O      0.673820000000     0.714110000000     0.124570000000     0          
C3       C      0.721010000000     0.763540000000     0.113800000000     0          
H1       H      0.698100000000     0.769800000000     0.116200000000     0          
C5       C      0.841420000000     0.883990000000     0.090700000000     0          
C7       C      0.745360000000     0.787800000000     0.107600000000     0          
H2       H      0.739000000000     0.810700000000     0.105700000000     0          
O4       O      0.808200000000     0.892100000000     0.089900000000     0          
O2       O      0.285890000000     0.326180000000     0.875430000000     0          
C3       C      0.236460000000     0.278990000000     0.886200000000     0          
H1       H      0.230200000000     0.301900000000     0.883800000000     0          
C5       C      0.116010000000     0.158580000000     0.909300000000     0          
C7       C      0.212200000000     0.254640000000     0.892400000000     0          
H2       H      0.189300000000     0.261000000000     0.894300000000     0          
O4       O      0.107900000000     0.191800000000     0.910100000000     0          
O2       O      0.673820000000     0.035890000000     0.625430000000     0          
C3       C      0.721010000000     0.986460000000     0.636200000000     0          
H1       H      0.698100000000     0.980200000000     0.633800000000     0          
C5       C      0.841420000000     0.866010000000     0.659300000000     0          
C7       C      0.745360000000     0.962200000000     0.642400000000     0          
H2       H      0.739000000000     0.939300000000     0.644300000000     0          
O4       O      0.808200000000     0.857900000000     0.660100000000     0          
O2       O      0.964110000000     0.423820000000     0.375430000000     0          
C3       C      0.013540000000     0.471010000000     0.386200000000     0          
H1       H      0.019800000000     0.448100000000     0.383800000000     0          
C5       C      0.133990000000     0.591420000000     0.409300000000     0          
C7       C      0.037800000000     0.495360000000     0.392400000000     0          
H2       H      0.060700000000     0.489000000000     0.394300000000     0          
O4       O      0.142100000000     0.558200000000     0.410100000000     0          
O2       O      0.576180000000     0.714110000000     0.125430000000     0          
C3       C      0.528990000000     0.763540000000     0.136200000000     0          
H1       H      0.551900000000     0.769800000000     0.133800000000     0          
C5       C      0.408580000000     0.883990000000     0.159300000000     0          
C7       C      0.504640000000     0.787800000000     0.142400000000     0          
H2       H      0.511000000000     0.810700000000     0.144300000000     0          
O4       O      0.441800000000     0.892100000000     0.160100000000     0          
O2       O      0.374570000000     0.285890000000     0.923820000000     0          
C3       C      0.363800000000     0.236460000000     0.971010000000     0          
H1       H      0.366200000000     0.230200000000     0.948100000000     0          
C5       C      0.340700000000     0.116010000000     0.091420000000     0          
C7       C      0.357600000000     0.212200000000     0.995360000000     0          
H2       H      0.355700000000     0.189300000000     0.989000000000     0          
O4       O      0.339900000000     0.107900000000     0.058200000000     0          
O2       O      0.714110000000     0.124570000000     0.673820000000     0          
C3       C      0.763540000000     0.113800000000     0.721010000000     0          
H1       H      0.769800000000     0.116200000000     0.698100000000     0          
C5       C      0.883990000000     0.090700000000     0.841420000000     0          
C7       C      0.787800000000     0.107600000000     0.745360000000     0          
H2       H      0.810700000000     0.105700000000     0.739000000000     0          
O4       O      0.892100000000     0.089900000000     0.808200000000     0          
O2       O      0.875430000000     0.464110000000     0.423820000000     0          
C3       C      0.886200000000     0.513540000000     0.471010000000     0          
H1       H      0.883800000000     0.519800000000     0.448100000000     0          
C5       C      0.909300000000     0.633990000000     0.591420000000     0          
C7       C      0.892400000000     0.537800000000     0.495360000000     0          
H2       H      0.894300000000     0.560700000000     0.489000000000     0          
O4       O      0.910100000000     0.642100000000     0.558200000000     0          
O2       O      0.535890000000     0.625430000000     0.173820000000     0          
C3       C      0.486460000000     0.636200000000     0.221010000000     0          
H1       H      0.480200000000     0.633800000000     0.198100000000     0          
C5       C      0.366010000000     0.659300000000     0.341420000000     0          
C7       C      0.462200000000     0.642400000000     0.245360000000     0          
H2       H      0.439300000000     0.644300000000     0.239000000000     0          
O4       O      0.357900000000     0.660100000000     0.308200000000     0          
O2       O      0.374570000000     0.464110000000     0.826180000000     0          
C3       C      0.363800000000     0.513540000000     0.778990000000     0          
H1       H      0.366200000000     0.519800000000     0.801900000000     0          
C5       C      0.340700000000     0.633990000000     0.658580000000     0          
C7       C      0.357600000000     0.537800000000     0.754640000000     0          
H2       H      0.355700000000     0.560700000000     0.761000000000     0          
O4       O      0.339900000000     0.642100000000     0.691800000000     0          
O2       O      0.535890000000     0.124570000000     0.576180000000     0          
C3       C      0.486460000000     0.113800000000     0.528990000000     0          
H1       H      0.480200000000     0.116200000000     0.551900000000     0          
C5       C      0.366010000000     0.090700000000     0.408580000000     0          
C7       C      0.462200000000     0.107600000000     0.504640000000     0          
H2       H      0.439300000000     0.105700000000     0.511000000000     0          
O4       O      0.357900000000     0.089900000000     0.441800000000     0          
O2       O      0.875430000000     0.285890000000     0.326180000000     0          
C3       C      0.886200000000     0.236460000000     0.278990000000     0          
H1       H      0.883800000000     0.230200000000     0.301900000000     0          
C5       C      0.909300000000     0.116010000000     0.158580000000     0          
C7       C      0.892400000000     0.212200000000     0.254640000000     0          
H2       H      0.894300000000     0.189300000000     0.261000000000     0          
O4       O      0.910100000000     0.107900000000     0.191800000000     0          
O2       O      0.714110000000     0.625430000000     0.076180000000     0          
C3       C      0.763540000000     0.636200000000     0.028990000000     0          
H1       H      0.769800000000     0.633800000000     0.051900000000     0          
C5       C      0.883990000000     0.659300000000     0.908580000000     0          
C7       C      0.787800000000     0.642400000000     0.004640000000     0          
H2       H      0.810700000000     0.644300000000     0.011000000000     0          
O4       O      0.892100000000     0.660100000000     0.941800000000     0          
O2       O      0.423820000000     0.374570000000     0.785890000000     0          
C3       C      0.471010000000     0.363800000000     0.736460000000     0          
H1       H      0.448100000000     0.366200000000     0.730200000000     0          
C5       C      0.591420000000     0.340700000000     0.616010000000     0          
C7       C      0.495360000000     0.357600000000     0.712200000000     0          
H2       H      0.489000000000     0.355700000000     0.689300000000     0          
O4       O      0.558200000000     0.339900000000     0.607900000000     0          
O2       O      0.923820000000     0.875430000000     0.964110000000     0          
C3       C      0.971010000000     0.886200000000     0.013540000000     0          
H1       H      0.948100000000     0.883800000000     0.019800000000     0          
C5       C      0.091420000000     0.909300000000     0.133990000000     0          
C7       C      0.995360000000     0.892400000000     0.037800000000     0          
H2       H      0.989000000000     0.894300000000     0.060700000000     0          
O4       O      0.058200000000     0.910100000000     0.142100000000     0          
O2       O      0.124570000000     0.673820000000     0.714110000000     0          
C3       C      0.113800000000     0.721010000000     0.763540000000     0          
H1       H      0.116200000000     0.698100000000     0.769800000000     0          
C5       C      0.090700000000     0.841420000000     0.883990000000     0          
C7       C      0.107600000000     0.745360000000     0.787800000000     0          
H2       H      0.105700000000     0.739000000000     0.810700000000     0          
O4       O      0.089900000000     0.808200000000     0.892100000000     0          
O2       O      0.326180000000     0.874570000000     0.464110000000     0          
C3       C      0.278990000000     0.863800000000     0.513540000000     0          
H1       H      0.301900000000     0.866200000000     0.519800000000     0          
C5       C      0.158580000000     0.840700000000     0.633990000000     0          
C7       C      0.254640000000     0.857600000000     0.537800000000     0          
H2       H      0.261000000000     0.855700000000     0.560700000000     0          
O4       O      0.191800000000     0.839900000000     0.642100000000     0          
O2       O      0.625430000000     0.076180000000     0.714110000000     0          
C3       C      0.636200000000     0.028990000000     0.763540000000     0          
H1       H      0.633800000000     0.051900000000     0.769800000000     0          
C5       C      0.659300000000     0.908580000000     0.883990000000     0          
C7       C      0.642400000000     0.004640000000     0.787800000000     0          
H2       H      0.644300000000     0.011000000000     0.810700000000     0          
O4       O      0.660100000000     0.941800000000     0.892100000000     0          
O2       O      0.326180000000     0.375430000000     0.785890000000     0          
C3       C      0.278990000000     0.386200000000     0.736460000000     0          
H1       H      0.301900000000     0.383800000000     0.730200000000     0          
C5       C      0.158580000000     0.409300000000     0.616010000000     0          
C7       C      0.254640000000     0.392400000000     0.712200000000     0          
H2       H      0.261000000000     0.394300000000     0.689300000000     0          
O4       O      0.191800000000     0.410100000000     0.607900000000     0          
O2       O      0.124570000000     0.576180000000     0.535890000000     0          
C3       C      0.113800000000     0.528990000000     0.486460000000     0          
H1       H      0.116200000000     0.551900000000     0.480200000000     0          
C5       C      0.090700000000     0.408580000000     0.366010000000     0          
C7       C      0.107600000000     0.504640000000     0.462200000000     0          
H2       H      0.105700000000     0.511000000000     0.439300000000     0          
O4       O      0.089900000000     0.441800000000     0.357900000000     0          
O2       O      0.125430000000     0.173820000000     0.035890000000     0          
C3       C      0.136200000000     0.221010000000     0.986460000000     0          
H1       H      0.133800000000     0.198100000000     0.980200000000     0          
C5       C      0.159300000000     0.341420000000     0.866010000000     0          
C7       C      0.142400000000     0.245360000000     0.962200000000     0          
H2       H      0.144300000000     0.239000000000     0.939300000000     0          
O4       O      0.160100000000     0.308200000000     0.857900000000     0          


