data_PAHVUS

_audit_creation_method RASPA-1.0
_audit_creation_date 2020-11-2
_audit_author_name 'Rocio Bueno-Perez'

_cell_length_a    26.7213
_cell_length_b    26.7213
_cell_length_c    26.7213
_cell_angle_alpha 90
_cell_angle_beta  90
_cell_angle_gamma 90
_cell_volume      19079.8

_symmetry_cell_setting          triclinic
_symmetry_space_group_name_Hall 'P 1'
_symmetry_space_group_name_H-M  'P 1'
_symmetry_Int_Tables_number     1

_symmetry_equiv_pos_as_xyz 'x,y,z'

loop_
_atom_site_label
_atom_site_type_symbol
_atom_site_fract_x
_atom_site_fract_y
_atom_site_fract_z
_atom_site_charge
C1       C      0.206000000000     0.144500000000     0.012000000000     0          
C2       C      0.242200000000     0.181500000000     0.012800000000     0          
C3       C      0.206000000000     0.644500000000     0.512000000000     0          
C4       C      0.242200000000     0.681500000000     0.512800000000     0          
C5       C      0.706000000000     0.144500000000     0.512000000000     0          
C6       C      0.742200000000     0.181500000000     0.512800000000     0          
C7       C      0.794000000000     0.855500000000     0.012000000000     0          
C8       C      0.757800000000     0.818500000000     0.012800000000     0          
C9       C      0.794000000000     0.144500000000     0.988000000000     0          
C10      C      0.757800000000     0.181500000000     0.987200000000     0          
C11      C      0.206000000000     0.855500000000     0.988000000000     0          
C12      C      0.242200000000     0.818500000000     0.987200000000     0          
C13      C      0.206000000000     0.355500000000     0.488000000000     0          
C14      C      0.242200000000     0.318500000000     0.487200000000     0          
C15      C      0.706000000000     0.855500000000     0.488000000000     0          
C16      C      0.742200000000     0.818500000000     0.487200000000     0          
C17      C      0.012000000000     0.206000000000     0.144500000000     0          
C18      C      0.012800000000     0.242200000000     0.181500000000     0          
C19      C      0.512000000000     0.206000000000     0.644500000000     0          
C20      C      0.512800000000     0.242200000000     0.681500000000     0          
C21      C      0.512000000000     0.706000000000     0.144500000000     0          
C22      C      0.512800000000     0.742200000000     0.181500000000     0          
C23      C      0.012000000000     0.794000000000     0.855500000000     0          
C24      C      0.012800000000     0.757800000000     0.818500000000     0          
C25      C      0.988000000000     0.794000000000     0.144500000000     0          
C26      C      0.987200000000     0.757800000000     0.181500000000     0          
C27      C      0.988000000000     0.294000000000     0.644500000000     0          
C28      C      0.987200000000     0.257800000000     0.681500000000     0          
C29      C      0.488000000000     0.794000000000     0.644500000000     0          
C30      C      0.487200000000     0.757800000000     0.681500000000     0          
C31      C      0.488000000000     0.294000000000     0.144500000000     0          
C32      C      0.487200000000     0.257800000000     0.181500000000     0          
C33      C      0.144500000000     0.512000000000     0.706000000000     0          
C34      C      0.181500000000     0.512800000000     0.742200000000     0          
C35      C      0.644500000000     0.012000000000     0.706000000000     0          
C36      C      0.681500000000     0.012800000000     0.742200000000     0          
C37      C      0.644500000000     0.512000000000     0.206000000000     0          
C38      C      0.681500000000     0.512800000000     0.242200000000     0          
C39      C      0.355500000000     0.012000000000     0.294000000000     0          
C40      C      0.318500000000     0.012800000000     0.257800000000     0          
C41      C      0.644500000000     0.988000000000     0.294000000000     0          
C42      C      0.681500000000     0.987200000000     0.257800000000     0          
C43      C      0.644500000000     0.488000000000     0.794000000000     0          
C44      C      0.681500000000     0.487200000000     0.757800000000     0          
C45      C      0.355500000000     0.988000000000     0.706000000000     0          
C46      C      0.318500000000     0.987200000000     0.742200000000     0          
C47      C      0.355500000000     0.488000000000     0.206000000000     0          
C48      C      0.318500000000     0.487200000000     0.242200000000     0          
C49      C      0.144500000000     0.206000000000     0.988000000000     0          
C50      C      0.181500000000     0.242200000000     0.987200000000     0          
C51      C      0.144500000000     0.706000000000     0.488000000000     0          
C52      C      0.181500000000     0.742200000000     0.487200000000     0          
C53      C      0.644500000000     0.206000000000     0.488000000000     0          
C54      C      0.681500000000     0.242200000000     0.487200000000     0          
C55      C      0.855500000000     0.794000000000     0.988000000000     0          
C56      C      0.818500000000     0.757800000000     0.987200000000     0          
C57      C      0.144500000000     0.794000000000     0.012000000000     0          
C58      C      0.181500000000     0.757800000000     0.012800000000     0          
C59      C      0.144500000000     0.294000000000     0.512000000000     0          
C60      C      0.181500000000     0.257800000000     0.512800000000     0          
C61      C      0.644500000000     0.794000000000     0.512000000000     0          
C62      C      0.681500000000     0.757800000000     0.512800000000     0          
C63      C      0.855500000000     0.206000000000     0.012000000000     0          
C64      C      0.818500000000     0.242200000000     0.012800000000     0          
C65      C      0.706000000000     0.012000000000     0.355500000000     0          
C66      C      0.742200000000     0.012800000000     0.318500000000     0          
C67      C      0.706000000000     0.512000000000     0.855500000000     0          
C68      C      0.742200000000     0.512800000000     0.818500000000     0          
C69      C      0.294000000000     0.012000000000     0.644500000000     0          
C70      C      0.257800000000     0.012800000000     0.681500000000     0          
C71      C      0.294000000000     0.512000000000     0.144500000000     0          
C72      C      0.257800000000     0.512800000000     0.181500000000     0          
C73      C      0.294000000000     0.988000000000     0.355500000000     0          
C74      C      0.257800000000     0.987200000000     0.318500000000     0          
C75      C      0.206000000000     0.488000000000     0.644500000000     0          
C76      C      0.242200000000     0.487200000000     0.681500000000     0          
C77      C      0.706000000000     0.988000000000     0.644500000000     0          
C78      C      0.742200000000     0.987200000000     0.681500000000     0          
C79      C      0.706000000000     0.488000000000     0.144500000000     0          
C80      C      0.742200000000     0.487200000000     0.181500000000     0          
C81      C      0.012000000000     0.855500000000     0.206000000000     0          
C82      C      0.012800000000     0.818500000000     0.242200000000     0          
C83      C      0.012000000000     0.355500000000     0.706000000000     0          
C84      C      0.012800000000     0.318500000000     0.742200000000     0          
C85      C      0.512000000000     0.855500000000     0.706000000000     0          
C86      C      0.512800000000     0.818500000000     0.742200000000     0          
C87      C      0.512000000000     0.355500000000     0.206000000000     0          
C88      C      0.512800000000     0.318500000000     0.242200000000     0          
C89      C      0.988000000000     0.144500000000     0.206000000000     0          
C90      C      0.987200000000     0.181500000000     0.242200000000     0          
C91      C      0.488000000000     0.144500000000     0.706000000000     0          
C92      C      0.487200000000     0.181500000000     0.742200000000     0          
C93      C      0.488000000000     0.644500000000     0.206000000000     0          
C94      C      0.487200000000     0.681500000000     0.242200000000     0          
C95      C      0.988000000000     0.855500000000     0.794000000000     0          
C96      C      0.987200000000     0.818500000000     0.757800000000     0          
C97      C      0.794000000000     0.355500000000     0.488000000000     0          
C98      C      0.757800000000     0.318500000000     0.487200000000     0          
C99      C      0.294000000000     0.855500000000     0.488000000000     0          
C100     C      0.257800000000     0.818500000000     0.487200000000     0          
C101     C      0.294000000000     0.355500000000     0.988000000000     0          
C102     C      0.257800000000     0.318500000000     0.987200000000     0          
C103     C      0.706000000000     0.644500000000     0.988000000000     0          
C104     C      0.742200000000     0.681500000000     0.987200000000     0          
C105     C      0.706000000000     0.355500000000     0.012000000000     0          
C106     C      0.742200000000     0.318500000000     0.012800000000     0          
C107     C      0.794000000000     0.644500000000     0.512000000000     0          
C108     C      0.757800000000     0.681500000000     0.512800000000     0          
C109     C      0.294000000000     0.144500000000     0.512000000000     0          
C110     C      0.257800000000     0.181500000000     0.512800000000     0          
C111     C      0.294000000000     0.644500000000     0.012000000000     0          
C112     C      0.257800000000     0.681500000000     0.012800000000     0          
C113     C      0.988000000000     0.294000000000     0.355500000000     0          
C114     C      0.987200000000     0.257800000000     0.318500000000     0          
C115     C      0.488000000000     0.794000000000     0.355500000000     0          
C116     C      0.487200000000     0.757800000000     0.318500000000     0          
C117     C      0.488000000000     0.294000000000     0.855500000000     0          
C118     C      0.487200000000     0.257800000000     0.818500000000     0          
C119     C      0.988000000000     0.706000000000     0.644500000000     0          
C120     C      0.987200000000     0.742200000000     0.681500000000     0          
C121     C      0.012000000000     0.206000000000     0.855500000000     0          
C122     C      0.012800000000     0.242200000000     0.818500000000     0          
C123     C      0.012000000000     0.706000000000     0.355500000000     0          
C124     C      0.012800000000     0.742200000000     0.318500000000     0          
C125     C      0.512000000000     0.206000000000     0.355500000000     0          
C126     C      0.512800000000     0.242200000000     0.318500000000     0          
C127     C      0.512000000000     0.706000000000     0.855500000000     0          
C128     C      0.512800000000     0.742200000000     0.818500000000     0          
C129     C      0.855500000000     0.988000000000     0.794000000000     0          
C130     C      0.818500000000     0.987200000000     0.757800000000     0          
C131     C      0.855500000000     0.488000000000     0.294000000000     0          
C132     C      0.818500000000     0.487200000000     0.257800000000     0          
C133     C      0.355500000000     0.488000000000     0.794000000000     0          
C134     C      0.318500000000     0.487200000000     0.757800000000     0          
C135     C      0.144500000000     0.988000000000     0.206000000000     0          
C136     C      0.181500000000     0.987200000000     0.242200000000     0          
C137     C      0.855500000000     0.012000000000     0.206000000000     0          
C138     C      0.818500000000     0.012800000000     0.242200000000     0          
C139     C      0.855500000000     0.512000000000     0.706000000000     0          
C140     C      0.818500000000     0.512800000000     0.742200000000     0          
C141     C      0.144500000000     0.012000000000     0.794000000000     0          
C142     C      0.181500000000     0.012800000000     0.757800000000     0          
C143     C      0.144500000000     0.512000000000     0.294000000000     0          
C144     C      0.181500000000     0.512800000000     0.257800000000     0          
C145     C      0.855500000000     0.294000000000     0.512000000000     0          
C146     C      0.818500000000     0.257800000000     0.512800000000     0          
C147     C      0.355500000000     0.794000000000     0.512000000000     0          
C148     C      0.318500000000     0.757800000000     0.512800000000     0          
C149     C      0.355500000000     0.294000000000     0.012000000000     0          
C150     C      0.318500000000     0.257800000000     0.012800000000     0          
C151     C      0.644500000000     0.706000000000     0.012000000000     0          
C152     C      0.681500000000     0.742200000000     0.012800000000     0          
C153     C      0.855500000000     0.706000000000     0.488000000000     0          
C154     C      0.818500000000     0.742200000000     0.487200000000     0          
C155     C      0.355500000000     0.206000000000     0.488000000000     0          
C156     C      0.318500000000     0.242200000000     0.487200000000     0          
C157     C      0.355500000000     0.706000000000     0.988000000000     0          
C158     C      0.318500000000     0.742200000000     0.987200000000     0          
C159     C      0.644500000000     0.294000000000     0.988000000000     0          
C160     C      0.681500000000     0.257800000000     0.987200000000     0          
C161     C      0.794000000000     0.988000000000     0.144500000000     0          
C162     C      0.757800000000     0.987200000000     0.181500000000     0          
C163     C      0.794000000000     0.488000000000     0.644500000000     0          
C164     C      0.757800000000     0.487200000000     0.681500000000     0          
C165     C      0.206000000000     0.988000000000     0.855500000000     0          
C166     C      0.242200000000     0.987200000000     0.818500000000     0          
C167     C      0.206000000000     0.488000000000     0.355500000000     0          
C168     C      0.242200000000     0.487200000000     0.318500000000     0          
C169     C      0.206000000000     0.012000000000     0.144500000000     0          
C170     C      0.242200000000     0.012800000000     0.181500000000     0          
C171     C      0.794000000000     0.012000000000     0.855500000000     0          
C172     C      0.757800000000     0.012800000000     0.818500000000     0          
C173     C      0.794000000000     0.512000000000     0.355500000000     0          
C174     C      0.757800000000     0.512800000000     0.318500000000     0          
C175     C      0.294000000000     0.512000000000     0.855500000000     0          
C176     C      0.257800000000     0.512800000000     0.818500000000     0          
C177     C      0.988000000000     0.144500000000     0.794000000000     0          
C178     C      0.987200000000     0.181500000000     0.757800000000     0          
C179     C      0.988000000000     0.644500000000     0.294000000000     0          
C180     C      0.987200000000     0.681500000000     0.257800000000     0          
C181     C      0.488000000000     0.144500000000     0.294000000000     0          
C182     C      0.487200000000     0.181500000000     0.257800000000     0          
C183     C      0.488000000000     0.644500000000     0.794000000000     0          
C184     C      0.487200000000     0.681500000000     0.757800000000     0          
C185     C      0.012000000000     0.355500000000     0.294000000000     0          
C186     C      0.012800000000     0.318500000000     0.257800000000     0          
C187     C      0.512000000000     0.855500000000     0.294000000000     0          
C188     C      0.512800000000     0.818500000000     0.257800000000     0          
C189     C      0.512000000000     0.355500000000     0.794000000000     0          
C190     C      0.512800000000     0.318500000000     0.757800000000     0          
C191     C      0.012000000000     0.644500000000     0.706000000000     0          
C192     C      0.012800000000     0.681500000000     0.742200000000     0          
Zr193    Zr     0.092230000000     0.000000000000     0.000000000000     0          
Zr194    Zr     0.092230000000     0.500000000000     0.500000000000     0          
Zr195    Zr     0.592230000000     0.000000000000     0.500000000000     0          
Zr196    Zr     0.592230000000     0.500000000000     0.000000000000     0          
Zr197    Zr     0.907770000000     0.000000000000     0.000000000000     0          
Zr198    Zr     0.907770000000     0.500000000000     0.500000000000     0          
Zr199    Zr     0.407770000000     0.000000000000     0.500000000000     0          
Zr200    Zr     0.407770000000     0.500000000000     0.000000000000     0          
Zr201    Zr     0.000000000000     0.092230000000     0.000000000000     0          
Zr202    Zr     0.000000000000     0.592230000000     0.500000000000     0          
Zr203    Zr     0.500000000000     0.092230000000     0.500000000000     0          
Zr204    Zr     0.500000000000     0.592230000000     0.000000000000     0          
Zr205    Zr     0.000000000000     0.907770000000     0.000000000000     0          
Zr206    Zr     0.000000000000     0.407770000000     0.500000000000     0          
Zr207    Zr     0.500000000000     0.907770000000     0.500000000000     0          
Zr208    Zr     0.500000000000     0.407770000000     0.000000000000     0          
Zr209    Zr     0.000000000000     0.000000000000     0.092230000000     0          
Zr210    Zr     0.000000000000     0.500000000000     0.592230000000     0          
Zr211    Zr     0.500000000000     0.000000000000     0.592230000000     0          
Zr212    Zr     0.500000000000     0.500000000000     0.092230000000     0          
Zr213    Zr     0.000000000000     0.000000000000     0.907770000000     0          
Zr214    Zr     0.000000000000     0.500000000000     0.407770000000     0          
Zr215    Zr     0.500000000000     0.000000000000     0.407770000000     0          
Zr216    Zr     0.500000000000     0.500000000000     0.907770000000     0          
O217     O      0.132600000000     0.072500000000     0.000000000000     0          
O218     O      0.132600000000     0.572500000000     0.500000000000     0          
O219     O      0.632600000000     0.072500000000     0.500000000000     0          
O220     O      0.632600000000     0.572500000000     0.000000000000     0          
O221     O      0.867400000000     0.927500000000     0.000000000000     0          
O222     O      0.867400000000     0.427500000000     0.500000000000     0          
O223     O      0.367400000000     0.927500000000     0.500000000000     0          
O224     O      0.367400000000     0.427500000000     0.000000000000     0          
O225     O      0.867400000000     0.072500000000     0.000000000000     0          
O226     O      0.867400000000     0.572500000000     0.500000000000     0          
O227     O      0.367400000000     0.072500000000     0.500000000000     0          
O228     O      0.367400000000     0.572500000000     0.000000000000     0          
O229     O      0.132600000000     0.927500000000     0.000000000000     0          
O230     O      0.132600000000     0.427500000000     0.500000000000     0          
O231     O      0.632600000000     0.927500000000     0.500000000000     0          
O232     O      0.632600000000     0.427500000000     0.000000000000     0          
O233     O      0.000000000000     0.132600000000     0.072500000000     0          
O234     O      0.000000000000     0.632600000000     0.572500000000     0          
O235     O      0.500000000000     0.132600000000     0.572500000000     0          
O236     O      0.500000000000     0.632600000000     0.072500000000     0          
O237     O      0.000000000000     0.867400000000     0.927500000000     0          
O238     O      0.000000000000     0.367400000000     0.427500000000     0          
O239     O      0.500000000000     0.867400000000     0.427500000000     0          
O240     O      0.500000000000     0.367400000000     0.927500000000     0          
O241     O      0.000000000000     0.867400000000     0.072500000000     0          
O242     O      0.000000000000     0.367400000000     0.572500000000     0          
O243     O      0.500000000000     0.867400000000     0.572500000000     0          
O244     O      0.500000000000     0.367400000000     0.072500000000     0          
O245     O      0.000000000000     0.132600000000     0.927500000000     0          
O246     O      0.000000000000     0.632600000000     0.427500000000     0          
O247     O      0.500000000000     0.132600000000     0.427500000000     0          
O248     O      0.500000000000     0.632600000000     0.927500000000     0          
O249     O      0.072500000000     0.000000000000     0.132600000000     0          
O250     O      0.072500000000     0.500000000000     0.632600000000     0          
O251     O      0.572500000000     0.000000000000     0.632600000000     0          
O252     O      0.572500000000     0.500000000000     0.132600000000     0          
O253     O      0.927500000000     0.000000000000     0.867400000000     0          
O254     O      0.927500000000     0.500000000000     0.367400000000     0          
O255     O      0.427500000000     0.000000000000     0.367400000000     0          
O256     O      0.427500000000     0.500000000000     0.867400000000     0          
O257     O      0.072500000000     0.000000000000     0.867400000000     0          
O258     O      0.072500000000     0.500000000000     0.367400000000     0          
O259     O      0.572500000000     0.000000000000     0.367400000000     0          
O260     O      0.572500000000     0.500000000000     0.867400000000     0          
O261     O      0.927500000000     0.000000000000     0.132600000000     0          
O262     O      0.927500000000     0.500000000000     0.632600000000     0          
O263     O      0.427500000000     0.000000000000     0.632600000000     0          
O264     O      0.427500000000     0.500000000000     0.132600000000     0          
O265     O      0.072500000000     0.132600000000     0.000000000000     0          
O266     O      0.072500000000     0.632600000000     0.500000000000     0          
O267     O      0.572500000000     0.132600000000     0.500000000000     0          
O268     O      0.572500000000     0.632600000000     0.000000000000     0          
O269     O      0.927500000000     0.867400000000     0.000000000000     0          
O270     O      0.927500000000     0.367400000000     0.500000000000     0          
O271     O      0.427500000000     0.867400000000     0.500000000000     0          
O272     O      0.427500000000     0.367400000000     0.000000000000     0          
O273     O      0.072500000000     0.867400000000     0.000000000000     0          
O274     O      0.072500000000     0.367400000000     0.500000000000     0          
O275     O      0.572500000000     0.867400000000     0.500000000000     0          
O276     O      0.572500000000     0.367400000000     0.000000000000     0          
O277     O      0.927500000000     0.132600000000     0.000000000000     0          
O278     O      0.927500000000     0.632600000000     0.500000000000     0          
O279     O      0.427500000000     0.132600000000     0.500000000000     0          
O280     O      0.427500000000     0.632600000000     0.000000000000     0          
O281     O      0.132600000000     0.000000000000     0.927500000000     0          
O282     O      0.132600000000     0.500000000000     0.427500000000     0          
O283     O      0.632600000000     0.000000000000     0.427500000000     0          
O284     O      0.632600000000     0.500000000000     0.927500000000     0          
O285     O      0.867400000000     0.000000000000     0.072500000000     0          
O286     O      0.867400000000     0.500000000000     0.572500000000     0          
O287     O      0.367400000000     0.000000000000     0.572500000000     0          
O288     O      0.367400000000     0.500000000000     0.072500000000     0          
O289     O      0.867400000000     0.000000000000     0.927500000000     0          
O290     O      0.867400000000     0.500000000000     0.427500000000     0          
O291     O      0.367400000000     0.000000000000     0.427500000000     0          
O292     O      0.367400000000     0.500000000000     0.927500000000     0          
O293     O      0.132600000000     0.000000000000     0.072500000000     0          
O294     O      0.132600000000     0.500000000000     0.572500000000     0          
O295     O      0.632600000000     0.000000000000     0.572500000000     0          
O296     O      0.632600000000     0.500000000000     0.072500000000     0          
O297     O      0.000000000000     0.072500000000     0.867400000000     0          
O298     O      0.000000000000     0.572500000000     0.367400000000     0          
O299     O      0.500000000000     0.072500000000     0.367400000000     0          
O300     O      0.500000000000     0.572500000000     0.867400000000     0          
O301     O      0.000000000000     0.927500000000     0.132600000000     0          
O302     O      0.000000000000     0.427500000000     0.632600000000     0          
O303     O      0.500000000000     0.927500000000     0.632600000000     0          
O304     O      0.500000000000     0.427500000000     0.132600000000     0          
O305     O      0.000000000000     0.072500000000     0.132600000000     0          
O306     O      0.000000000000     0.572500000000     0.632600000000     0          
O307     O      0.500000000000     0.072500000000     0.632600000000     0          
O308     O      0.500000000000     0.572500000000     0.132600000000     0          
O309     O      0.000000000000     0.927500000000     0.867400000000     0          
O310     O      0.000000000000     0.427500000000     0.367400000000     0          
O311     O      0.500000000000     0.927500000000     0.367400000000     0          
O312     O      0.500000000000     0.427500000000     0.867400000000     0          
C313     C      0.117600000000     0.117600000000     0.000000000000     0          
C314     C      0.156500000000     0.156500000000     0.000000000000     0          
C315     C      0.230500000000     0.230500000000     0.000000000000     0          
C316     C      0.117600000000     0.617600000000     0.500000000000     0          
C317     C      0.156500000000     0.656500000000     0.500000000000     0          
C318     C      0.230500000000     0.730500000000     0.500000000000     0          
C319     C      0.617600000000     0.117600000000     0.500000000000     0          
C320     C      0.656500000000     0.156500000000     0.500000000000     0          
C321     C      0.730500000000     0.230500000000     0.500000000000     0          
C322     C      0.617600000000     0.617600000000     0.000000000000     0          
C323     C      0.656500000000     0.656500000000     0.000000000000     0          
C324     C      0.730500000000     0.730500000000     0.000000000000     0          
C325     C      0.882400000000     0.882400000000     0.000000000000     0          
C326     C      0.843500000000     0.843500000000     0.000000000000     0          
C327     C      0.769500000000     0.769500000000     0.000000000000     0          
C328     C      0.882400000000     0.382400000000     0.500000000000     0          
C329     C      0.843500000000     0.343500000000     0.500000000000     0          
C330     C      0.769500000000     0.269500000000     0.500000000000     0          
C331     C      0.382400000000     0.882400000000     0.500000000000     0          
C332     C      0.343500000000     0.843500000000     0.500000000000     0          
C333     C      0.269500000000     0.769500000000     0.500000000000     0          
C334     C      0.382400000000     0.382400000000     0.000000000000     0          
C335     C      0.343500000000     0.343500000000     0.000000000000     0          
C336     C      0.269500000000     0.269500000000     0.000000000000     0          
C337     C      0.882400000000     0.117600000000     0.000000000000     0          
C338     C      0.843500000000     0.156500000000     0.000000000000     0          
C339     C      0.769500000000     0.230500000000     0.000000000000     0          
C340     C      0.882400000000     0.617600000000     0.500000000000     0          
C341     C      0.843500000000     0.656500000000     0.500000000000     0          
C342     C      0.769500000000     0.730500000000     0.500000000000     0          
C343     C      0.382400000000     0.117600000000     0.500000000000     0          
C344     C      0.343500000000     0.156500000000     0.500000000000     0          
C345     C      0.269500000000     0.230500000000     0.500000000000     0          
C346     C      0.382400000000     0.617600000000     0.000000000000     0          
C347     C      0.343500000000     0.656500000000     0.000000000000     0          
C348     C      0.269500000000     0.730500000000     0.000000000000     0          
C349     C      0.117600000000     0.882400000000     0.000000000000     0          
C350     C      0.156500000000     0.843500000000     0.000000000000     0          
C351     C      0.230500000000     0.769500000000     0.000000000000     0          
C352     C      0.117600000000     0.382400000000     0.500000000000     0          
C353     C      0.156500000000     0.343500000000     0.500000000000     0          
C354     C      0.230500000000     0.269500000000     0.500000000000     0          
C355     C      0.617600000000     0.882400000000     0.500000000000     0          
C356     C      0.656500000000     0.843500000000     0.500000000000     0          
C357     C      0.730500000000     0.769500000000     0.500000000000     0          
C358     C      0.617600000000     0.382400000000     0.000000000000     0          
C359     C      0.656500000000     0.343500000000     0.000000000000     0          
C360     C      0.730500000000     0.269500000000     0.000000000000     0          
C361     C      0.000000000000     0.117600000000     0.117600000000     0          
C362     C      0.000000000000     0.156500000000     0.156500000000     0          
C363     C      0.000000000000     0.230500000000     0.230500000000     0          
C364     C      0.000000000000     0.617600000000     0.617600000000     0          
C365     C      0.000000000000     0.656500000000     0.656500000000     0          
C366     C      0.000000000000     0.730500000000     0.730500000000     0          
C367     C      0.500000000000     0.117600000000     0.617600000000     0          
C368     C      0.500000000000     0.156500000000     0.656500000000     0          
C369     C      0.500000000000     0.230500000000     0.730500000000     0          
C370     C      0.500000000000     0.617600000000     0.117600000000     0          
C371     C      0.500000000000     0.656500000000     0.156500000000     0          
C372     C      0.500000000000     0.730500000000     0.230500000000     0          
C373     C      0.000000000000     0.882400000000     0.882400000000     0          
C374     C      0.000000000000     0.843500000000     0.843500000000     0          
C375     C      0.000000000000     0.769500000000     0.769500000000     0          
C376     C      0.000000000000     0.382400000000     0.382400000000     0          
C377     C      0.000000000000     0.343500000000     0.343500000000     0          
C378     C      0.000000000000     0.269500000000     0.269500000000     0          
C379     C      0.500000000000     0.882400000000     0.382400000000     0          
C380     C      0.500000000000     0.843500000000     0.343500000000     0          
C381     C      0.500000000000     0.769500000000     0.269500000000     0          
C382     C      0.500000000000     0.382400000000     0.882400000000     0          
C383     C      0.500000000000     0.343500000000     0.843500000000     0          
C384     C      0.500000000000     0.269500000000     0.769500000000     0          
C385     C      0.000000000000     0.882400000000     0.117600000000     0          
C386     C      0.000000000000     0.843500000000     0.156500000000     0          
C387     C      0.000000000000     0.769500000000     0.230500000000     0          
C388     C      0.000000000000     0.382400000000     0.617600000000     0          
C389     C      0.000000000000     0.343500000000     0.656500000000     0          
C390     C      0.000000000000     0.269500000000     0.730500000000     0          
C391     C      0.500000000000     0.882400000000     0.617600000000     0          
C392     C      0.500000000000     0.843500000000     0.656500000000     0          
C393     C      0.500000000000     0.769500000000     0.730500000000     0          
C394     C      0.500000000000     0.382400000000     0.117600000000     0          
C395     C      0.500000000000     0.343500000000     0.156500000000     0          
C396     C      0.500000000000     0.269500000000     0.230500000000     0          
C397     C      0.000000000000     0.117600000000     0.882400000000     0          
C398     C      0.000000000000     0.156500000000     0.843500000000     0          
C399     C      0.000000000000     0.230500000000     0.769500000000     0          
C400     C      0.000000000000     0.617600000000     0.382400000000     0          
C401     C      0.000000000000     0.656500000000     0.343500000000     0          
C402     C      0.000000000000     0.730500000000     0.269500000000     0          
C403     C      0.500000000000     0.117600000000     0.382400000000     0          
C404     C      0.500000000000     0.156500000000     0.343500000000     0          
C405     C      0.500000000000     0.230500000000     0.269500000000     0          
C406     C      0.500000000000     0.617600000000     0.882400000000     0          
C407     C      0.500000000000     0.656500000000     0.843500000000     0          
C408     C      0.500000000000     0.730500000000     0.769500000000     0          
C409     C      0.117600000000     0.000000000000     0.117600000000     0          
C410     C      0.156500000000     0.000000000000     0.156500000000     0          
C411     C      0.230500000000     0.000000000000     0.230500000000     0          
C412     C      0.117600000000     0.500000000000     0.617600000000     0          
C413     C      0.156500000000     0.500000000000     0.656500000000     0          
C414     C      0.230500000000     0.500000000000     0.730500000000     0          
C415     C      0.617600000000     0.000000000000     0.617600000000     0          
C416     C      0.656500000000     0.000000000000     0.656500000000     0          
C417     C      0.730500000000     0.000000000000     0.730500000000     0          
C418     C      0.617600000000     0.500000000000     0.117600000000     0          
C419     C      0.656500000000     0.500000000000     0.156500000000     0          
C420     C      0.730500000000     0.500000000000     0.230500000000     0          
C421     C      0.882400000000     0.000000000000     0.882400000000     0          
C422     C      0.843500000000     0.000000000000     0.843500000000     0          
C423     C      0.769500000000     0.000000000000     0.769500000000     0          
C424     C      0.882400000000     0.500000000000     0.382400000000     0          
C425     C      0.843500000000     0.500000000000     0.343500000000     0          
C426     C      0.769500000000     0.500000000000     0.269500000000     0          
C427     C      0.382400000000     0.000000000000     0.382400000000     0          
C428     C      0.343500000000     0.000000000000     0.343500000000     0          
C429     C      0.269500000000     0.000000000000     0.269500000000     0          
C430     C      0.382400000000     0.500000000000     0.882400000000     0          
C431     C      0.343500000000     0.500000000000     0.843500000000     0          
C432     C      0.269500000000     0.500000000000     0.769500000000     0          
C433     C      0.117600000000     0.000000000000     0.882400000000     0          
C434     C      0.156500000000     0.000000000000     0.843500000000     0          
C435     C      0.230500000000     0.000000000000     0.769500000000     0          
C436     C      0.117600000000     0.500000000000     0.382400000000     0          
C437     C      0.156500000000     0.500000000000     0.343500000000     0          
C438     C      0.230500000000     0.500000000000     0.269500000000     0          
C439     C      0.617600000000     0.000000000000     0.382400000000     0          
C440     C      0.656500000000     0.000000000000     0.343500000000     0          
C441     C      0.730500000000     0.000000000000     0.269500000000     0          
C442     C      0.617600000000     0.500000000000     0.882400000000     0          
C443     C      0.656500000000     0.500000000000     0.843500000000     0          
C444     C      0.730500000000     0.500000000000     0.769500000000     0          
C445     C      0.882400000000     0.000000000000     0.117600000000     0          
C446     C      0.843500000000     0.000000000000     0.156500000000     0          
C447     C      0.769500000000     0.000000000000     0.230500000000     0          
C448     C      0.882400000000     0.500000000000     0.617600000000     0          
C449     C      0.843500000000     0.500000000000     0.656500000000     0          
C450     C      0.769500000000     0.500000000000     0.730500000000     0          
C451     C      0.382400000000     0.000000000000     0.617600000000     0          
C452     C      0.343500000000     0.000000000000     0.656500000000     0          
C453     C      0.269500000000     0.000000000000     0.730500000000     0          
C454     C      0.382400000000     0.500000000000     0.117600000000     0          
C455     C      0.343500000000     0.500000000000     0.156500000000     0          
C456     C      0.269500000000     0.500000000000     0.230500000000     0          
O457     O      0.051700000000     0.051700000000     0.051700000000     0          
O458     O      0.051700000000     0.551700000000     0.551700000000     0          
O459     O      0.551700000000     0.051700000000     0.551700000000     0          
O460     O      0.538400000000     0.038400000000     0.538400000000     0          
O461     O      0.551700000000     0.551700000000     0.051700000000     0          
O462     O      0.538400000000     0.538400000000     0.038400000000     0          
O463     O      0.948300000000     0.948300000000     0.051700000000     0          
O464     O      0.948300000000     0.448300000000     0.551700000000     0          
O465     O      0.448300000000     0.948300000000     0.551700000000     0          
O466     O      0.461600000000     0.961600000000     0.538400000000     0          
O467     O      0.448300000000     0.448300000000     0.051700000000     0          
O468     O      0.461600000000     0.461600000000     0.038400000000     0          
O469     O      0.948300000000     0.051700000000     0.948300000000     0          
O470     O      0.948300000000     0.551700000000     0.448300000000     0          
O471     O      0.448300000000     0.051700000000     0.448300000000     0          
O472     O      0.461600000000     0.038400000000     0.461600000000     0          
O473     O      0.448300000000     0.551700000000     0.948300000000     0          
O474     O      0.461600000000     0.538400000000     0.961600000000     0          
O475     O      0.051700000000     0.948300000000     0.948300000000     0          
O476     O      0.051700000000     0.448300000000     0.448300000000     0          
O477     O      0.551700000000     0.948300000000     0.448300000000     0          
O478     O      0.538400000000     0.961600000000     0.461600000000     0          
O479     O      0.551700000000     0.448300000000     0.948300000000     0          
O480     O      0.538400000000     0.461600000000     0.961600000000     0          
O481     O      0.051700000000     0.051700000000     0.948300000000     0          
O482     O      0.051700000000     0.551700000000     0.448300000000     0          
O483     O      0.551700000000     0.051700000000     0.448300000000     0          
O484     O      0.538400000000     0.038400000000     0.461600000000     0          
O485     O      0.551700000000     0.551700000000     0.948300000000     0          
O486     O      0.538400000000     0.538400000000     0.961600000000     0          
O487     O      0.948300000000     0.948300000000     0.948300000000     0          
O488     O      0.948300000000     0.448300000000     0.448300000000     0          
O489     O      0.448300000000     0.948300000000     0.448300000000     0          
O490     O      0.461600000000     0.961600000000     0.461600000000     0          
O491     O      0.448300000000     0.448300000000     0.948300000000     0          
O492     O      0.461600000000     0.461600000000     0.961600000000     0          
O493     O      0.051700000000     0.948300000000     0.051700000000     0          
O494     O      0.051700000000     0.448300000000     0.551700000000     0          
O495     O      0.551700000000     0.948300000000     0.551700000000     0          
O496     O      0.538400000000     0.961600000000     0.538400000000     0          
O497     O      0.551700000000     0.448300000000     0.051700000000     0          
O498     O      0.538400000000     0.461600000000     0.038400000000     0          
O499     O      0.948300000000     0.051700000000     0.051700000000     0          
O500     O      0.948300000000     0.551700000000     0.551700000000     0          
O501     O      0.448300000000     0.051700000000     0.551700000000     0          
O502     O      0.461600000000     0.038400000000     0.538400000000     0          
O503     O      0.448300000000     0.551700000000     0.051700000000     0          
O504     O      0.461600000000     0.538400000000     0.038400000000     0          
Re505    Re     0.312100000000     0.187900000000     0.044400000000     0          
Re506    Re     0.312100000000     0.687900000000     0.544400000000     0          
Re507    Re     0.687900000000     0.812100000000     0.044400000000     0          
Cl508    Cl     0.644000000000     0.356000000000     0.470000000000     0          
Cl509    Cl     0.644000000000     0.644000000000     0.530000000000     0          
Re510    Re     0.312100000000     0.312100000000     0.455600000000     0          
Re511    Re     0.544400000000     0.312100000000     0.687900000000     0          
Cl512    Cl     0.970000000000     0.144000000000     0.356000000000     0          
Cl513    Cl     0.470000000000     0.644000000000     0.356000000000     0          
Re514    Re     0.955600000000     0.687900000000     0.187900000000     0          
Re515    Re     0.455600000000     0.687900000000     0.687900000000     0          
Cl516    Cl     0.530000000000     0.356000000000     0.356000000000     0          
Cl517    Cl     0.144000000000     0.970000000000     0.356000000000     0          
Cl518    Cl     0.856000000000     0.970000000000     0.644000000000     0          
Re519    Re     0.312100000000     0.455600000000     0.312100000000     0          
Cl520    Cl     0.356000000000     0.144000000000     0.030000000000     0          
Re521    Re     0.187900000000     0.687900000000     0.044400000000     0          
Re522    Re     0.812100000000     0.312100000000     0.044400000000     0          
Cl523    Cl     0.356000000000     0.356000000000     0.470000000000     0          
Cl524    Cl     0.356000000000     0.970000000000     0.856000000000     0          
Cl525    Cl     0.356000000000     0.470000000000     0.356000000000     0          
Cl526    Cl     0.644000000000     0.970000000000     0.144000000000     0          
Cl527    Cl     0.644000000000     0.470000000000     0.644000000000     0          
Cl528    Cl     0.644000000000     0.530000000000     0.356000000000     0          
Re529    Re     0.187900000000     0.955600000000     0.312100000000     0          
Re530    Re     0.312100000000     0.455600000000     0.687900000000     0          
Cl531    Cl     0.970000000000     0.144000000000     0.644000000000     0          
Re532    Re     0.544400000000     0.312100000000     0.312100000000     0          
Re533    Re     0.955600000000     0.187900000000     0.312100000000     0          
Re534    Re     0.955600000000     0.812100000000     0.687900000000     0          
Cl535    Cl     0.644000000000     0.856000000000     0.030000000000     0          
Re536    Re     0.687900000000     0.312100000000     0.455600000000     0          
Cl537    Cl     0.356000000000     0.644000000000     0.530000000000     0          
Re538    Re     0.687900000000     0.687900000000     0.544400000000     0          
Re539    Re     0.455600000000     0.687900000000     0.312100000000     0          
Cl540    Cl     0.530000000000     0.356000000000     0.644000000000     0          
Cl541    Cl     0.970000000000     0.644000000000     0.144000000000     0          
Cl542    Cl     0.470000000000     0.644000000000     0.644000000000     0          
Re543    Re     0.812100000000     0.955600000000     0.687900000000     0          
Cl544    Cl     0.856000000000     0.356000000000     0.030000000000     0          
Cl545    Cl     0.144000000000     0.644000000000     0.030000000000     0          
Re546    Re     0.687900000000     0.955600000000     0.187900000000     0          
Re547    Re     0.687900000000     0.455600000000     0.687900000000     0          
Re548    Re     0.312100000000     0.955600000000     0.812100000000     0          
Cl549    Cl     0.356000000000     0.470000000000     0.644000000000     0          
Re550    Re     0.687900000000     0.544400000000     0.312100000000     0          
Re551    Re     0.955600000000     0.187900000000     0.687900000000     0          
Cl552    Cl     0.970000000000     0.856000000000     0.644000000000     0          
H553     H      0.216510000000     0.104170000000     0.021130000000     0          
H554     H      0.216510000000     0.604170000000     0.521130000000     0          
H555     H      0.716510000000     0.104170000000     0.521130000000     0          
H556     H      0.782220000000     0.171940000000     0.524070000000     0          
H557     H      0.783490000000     0.895830000000     0.021130000000     0          
H558     H      0.783490000000     0.104170000000     0.978870000000     0          
H559     H      0.717780000000     0.171940000000     0.975930000000     0          
H560     H      0.216510000000     0.895830000000     0.978870000000     0          
H561     H      0.282220000000     0.828060000000     0.975930000000     0          
H562     H      0.216510000000     0.395830000000     0.478870000000     0          
H563     H      0.716510000000     0.895830000000     0.478870000000     0          
H564     H      0.782220000000     0.828060000000     0.475930000000     0          
H565     H      0.021130000000     0.216510000000     0.104170000000     0          
H566     H      0.024070000000     0.282220000000     0.171940000000     0          
H567     H      0.521130000000     0.216510000000     0.604170000000     0          
H568     H      0.521130000000     0.716510000000     0.104170000000     0          
H569     H      0.524070000000     0.782220000000     0.171940000000     0          
H570     H      0.021130000000     0.783490000000     0.895830000000     0          
H571     H      0.024070000000     0.717780000000     0.828060000000     0          
H572     H      0.978870000000     0.783490000000     0.104170000000     0          
H573     H      0.978870000000     0.283490000000     0.604170000000     0          
H574     H      0.478870000000     0.783490000000     0.604170000000     0          
H575     H      0.478870000000     0.283490000000     0.104170000000     0          
H576     H      0.475930000000     0.217780000000     0.171940000000     0          
H577     H      0.104170000000     0.521130000000     0.716510000000     0          
H578     H      0.171940000000     0.524070000000     0.782220000000     0          
H579     H      0.604170000000     0.021130000000     0.716510000000     0          
H580     H      0.671940000000     0.024070000000     0.782220000000     0          
H581     H      0.604170000000     0.521130000000     0.216510000000     0          
H582     H      0.395830000000     0.021130000000     0.283490000000     0          
H583     H      0.328060000000     0.024070000000     0.217780000000     0          
H584     H      0.604170000000     0.978870000000     0.283490000000     0          
H585     H      0.604170000000     0.478870000000     0.783490000000     0          
H586     H      0.395830000000     0.978870000000     0.716510000000     0          
H587     H      0.395830000000     0.478870000000     0.216510000000     0          
H588     H      0.104170000000     0.216510000000     0.978870000000     0          
H589     H      0.171940000000     0.282220000000     0.975930000000     0          
H590     H      0.104170000000     0.716510000000     0.478870000000     0          
H591     H      0.171940000000     0.782220000000     0.475930000000     0          
H592     H      0.604170000000     0.216510000000     0.478870000000     0          
H593     H      0.895830000000     0.783490000000     0.978870000000     0          
H594     H      0.828060000000     0.717780000000     0.975930000000     0          
H595     H      0.104170000000     0.783490000000     0.021130000000     0          
H596     H      0.104170000000     0.283490000000     0.521130000000     0          
H597     H      0.171940000000     0.217780000000     0.524070000000     0          
H598     H      0.604170000000     0.783490000000     0.521130000000     0          
H599     H      0.895830000000     0.216510000000     0.021130000000     0          
H600     H      0.716510000000     0.021130000000     0.395830000000     0          
H601     H      0.782220000000     0.024070000000     0.328060000000     0          
H602     H      0.716510000000     0.521130000000     0.895830000000     0          
H603     H      0.782220000000     0.524070000000     0.828060000000     0          
H604     H      0.283490000000     0.021130000000     0.604170000000     0          
H605     H      0.217780000000     0.024070000000     0.671940000000     0          
H606     H      0.283490000000     0.521130000000     0.104170000000     0          
H607     H      0.217780000000     0.524070000000     0.171940000000     0          
H608     H      0.283490000000     0.978870000000     0.395830000000     0          
H609     H      0.216510000000     0.478870000000     0.604170000000     0          
H610     H      0.716510000000     0.978870000000     0.604170000000     0          
H611     H      0.716510000000     0.478870000000     0.104170000000     0          
H612     H      0.782220000000     0.475930000000     0.171940000000     0          
H613     H      0.021130000000     0.895830000000     0.216510000000     0          
H614     H      0.024070000000     0.828060000000     0.282220000000     0          
H615     H      0.021130000000     0.395830000000     0.716510000000     0          
H616     H      0.024070000000     0.328060000000     0.782220000000     0          
H617     H      0.521130000000     0.895830000000     0.716510000000     0          
H618     H      0.524070000000     0.828060000000     0.782220000000     0          
H619     H      0.521130000000     0.395830000000     0.216510000000     0          
H620     H      0.978870000000     0.104170000000     0.216510000000     0          
H621     H      0.478870000000     0.104170000000     0.716510000000     0          
H622     H      0.475930000000     0.171940000000     0.782220000000     0          
H623     H      0.478870000000     0.604170000000     0.216510000000     0          
H624     H      0.978870000000     0.895830000000     0.783490000000     0          
H625     H      0.783490000000     0.395830000000     0.478870000000     0          
H626     H      0.283490000000     0.895830000000     0.478870000000     0          
H627     H      0.217780000000     0.828060000000     0.475930000000     0          
H628     H      0.283490000000     0.395830000000     0.978870000000     0          
H629     H      0.217780000000     0.328060000000     0.975930000000     0          
H630     H      0.716510000000     0.604170000000     0.978870000000     0          
H631     H      0.782220000000     0.671940000000     0.975930000000     0          
H632     H      0.716510000000     0.395830000000     0.021130000000     0          
H633     H      0.783490000000     0.604170000000     0.521130000000     0          
H634     H      0.283490000000     0.104170000000     0.521130000000     0          
H635     H      0.217780000000     0.171940000000     0.524070000000     0          
H636     H      0.283490000000     0.604170000000     0.021130000000     0          
H637     H      0.978870000000     0.283490000000     0.395830000000     0          
H638     H      0.478870000000     0.783490000000     0.395830000000     0          
H639     H      0.478870000000     0.283490000000     0.895830000000     0          
H640     H      0.475930000000     0.217780000000     0.828060000000     0          
H641     H      0.978870000000     0.716510000000     0.604170000000     0          
H642     H      0.021130000000     0.216510000000     0.895830000000     0          
H643     H      0.024070000000     0.282220000000     0.828060000000     0          
H644     H      0.021130000000     0.716510000000     0.395830000000     0          
H645     H      0.024070000000     0.782220000000     0.328060000000     0          
H646     H      0.521130000000     0.216510000000     0.395830000000     0          
H647     H      0.521130000000     0.716510000000     0.895830000000     0          
H648     H      0.524070000000     0.782220000000     0.828060000000     0          
H649     H      0.895830000000     0.978870000000     0.783490000000     0          
H650     H      0.895830000000     0.478870000000     0.283490000000     0          
H651     H      0.828060000000     0.475930000000     0.217780000000     0          
H652     H      0.395830000000     0.478870000000     0.783490000000     0          
H653     H      0.104170000000     0.978870000000     0.216510000000     0          
H654     H      0.895830000000     0.021130000000     0.216510000000     0          
H655     H      0.828060000000     0.024070000000     0.282220000000     0          
H656     H      0.895830000000     0.521130000000     0.716510000000     0          
H657     H      0.828060000000     0.524070000000     0.782220000000     0          
H658     H      0.104170000000     0.021130000000     0.783490000000     0          
H659     H      0.171940000000     0.024070000000     0.717780000000     0          
H660     H      0.104170000000     0.521130000000     0.283490000000     0          
H661     H      0.171940000000     0.524070000000     0.217780000000     0          
H662     H      0.895830000000     0.283490000000     0.521130000000     0          
H663     H      0.828060000000     0.217780000000     0.524070000000     0          
H664     H      0.395830000000     0.783490000000     0.521130000000     0          
H665     H      0.395830000000     0.283490000000     0.021130000000     0          
H666     H      0.328060000000     0.217780000000     0.024070000000     0          
H667     H      0.604170000000     0.716510000000     0.021130000000     0          
H668     H      0.895830000000     0.716510000000     0.478870000000     0          
H669     H      0.828060000000     0.782220000000     0.475930000000     0          
H670     H      0.395830000000     0.216510000000     0.478870000000     0          
H671     H      0.395830000000     0.716510000000     0.978870000000     0          
H672     H      0.328060000000     0.782220000000     0.975930000000     0          
H673     H      0.604170000000     0.283490000000     0.978870000000     0          
H674     H      0.671940000000     0.217780000000     0.975930000000     0          
H675     H      0.783490000000     0.978870000000     0.104170000000     0          
H676     H      0.783490000000     0.478870000000     0.604170000000     0          
H677     H      0.216510000000     0.978870000000     0.895830000000     0          
H678     H      0.216510000000     0.478870000000     0.395830000000     0          
H679     H      0.216510000000     0.021130000000     0.104170000000     0          
H680     H      0.282220000000     0.024070000000     0.171940000000     0          
H681     H      0.783490000000     0.021130000000     0.895830000000     0          
H682     H      0.717780000000     0.024070000000     0.828060000000     0          
H683     H      0.783490000000     0.521130000000     0.395830000000     0          
H684     H      0.283490000000     0.521130000000     0.895830000000     0          
H685     H      0.217780000000     0.524070000000     0.828060000000     0          
H686     H      0.978870000000     0.104170000000     0.783490000000     0          
H687     H      0.978870000000     0.604170000000     0.283490000000     0          
H688     H      0.478870000000     0.104170000000     0.283490000000     0          
H689     H      0.475930000000     0.171940000000     0.217780000000     0          
H690     H      0.478870000000     0.604170000000     0.783490000000     0          
H691     H      0.021130000000     0.395830000000     0.283490000000     0          
H692     H      0.024070000000     0.328060000000     0.217780000000     0          
H693     H      0.521130000000     0.895830000000     0.283490000000     0          
H694     H      0.524070000000     0.828060000000     0.217780000000     0          
H695     H      0.521130000000     0.395830000000     0.783490000000     0          
H696     H      0.021130000000     0.604170000000     0.716510000000     0          
H697     H      0.024070000000     0.671940000000     0.782220000000     0          


