data_QAGBUY

_audit_creation_method RASPA-1.0
_audit_creation_date 2020-12-14
_audit_author_name 'Rocio Bueno-Perez'

_cell_length_a    30.621
_cell_length_b    55.6255
_cell_length_c    24.412
_cell_angle_alpha 90
_cell_angle_beta  90
_cell_angle_gamma 90
_cell_volume      41581.2

_symmetry_cell_setting          triclinic
_symmetry_space_group_name_Hall 'P 1'
_symmetry_space_group_name_H-M  'P 1'
_symmetry_Int_Tables_number     1

_symmetry_equiv_pos_as_xyz 'x,y,z'

loop_
_atom_site_label
_atom_site_type_symbol
_atom_site_fract_x
_atom_site_fract_y
_atom_site_fract_z
_atom_site_charge
O1       O      0.544200000000     0.219340000000     0.804060000000     0          
Zr2      Zr     0.442230000000     0.283870000000     0.677660000000     0          
O3       O      0.415750000000     0.247650000000     0.652260000000     0          
O4       O      0.421650000000     0.320100000000     0.645120000000     0          
C5       C      0.567900000000     0.341450000000     0.843800000000     0          
O6       O      0.456530000000     0.348490000000     0.804990000000     0          
C7       C      0.588900000000     0.360900000000     0.878000000000     0          
C8       C      0.576500000000     0.385230000000     0.867900000000     0          
C9       C      0.616800000000     0.355770000000     0.918200000000     0          
C10      C      0.594900000000     0.402950000000     0.898900000000     0          
H11      H      0.556400000000     0.388900000000     0.840700000000     0          
C12      C      0.635100000000     0.373730000000     0.950800000000     0          
H13      H      0.624200000000     0.339800000000     0.924800000000     0          
C14      C      0.623800000000     0.397510000000     0.941600000000     0          
H15      H      0.588200000000     0.418900000000     0.891500000000     0          
H16      H      0.654800000000     0.369800000000     0.978400000000     0          
N17      N      0.642000000000     0.414980000000     0.977100000000     0          
H18      H      0.659000000000     0.409700000000     0.002500000000     0          
C19      C      0.635400000000     0.439700000000     0.975400000000     0          
O20      O      0.608000000000     0.449380000000     0.942100000000     0          
C21      C      0.657200000000     0.452650000000     0.026200000000     0          
C22      C      0.691100000000     0.445130000000     0.051600000000     0          
C23      C      0.634900000000     0.473100000000     0.036300000000     0          
H24      H      0.704000000000     0.430500000000     0.042900000000     0          
C25      C      0.708300000000     0.460250000000     0.094000000000     0          
H26      H      0.609500000000     0.477500000000     0.017900000000     0          
C27      C      0.654300000000     0.487210000000     0.077700000000     0          
C28      C      0.690800000000     0.480920000000     0.106500000000     0          
H29      H      0.732700000000     0.455100000000     0.113400000000     0          
H30      H      0.641300000000     0.501900000000     0.086100000000     0          
C31      C      0.707800000000     0.497500000000     0.150200000000     0          
C32      C      0.701200000000     0.490720000000     0.205200000000     0          
C33      C      0.726500000000     0.519180000000     0.132500000000     0          
C34      C      0.681000000000     0.469140000000     0.222260000000     0          
N35      N      0.742700000000     0.537060000000     0.166390000000     0          
C36      C      0.735600000000     0.525450000000     0.076000000000     0          
H37      H      0.669800000000     0.457200000000     0.199600000000     0          
C38      C      0.759000000000     0.554340000000     0.133300000000     0          
C39      C      0.753500000000     0.547110000000     0.076700000000     0          
H40      H      0.730000000000     0.516100000000     0.045300000000     0          
C41      C      0.779700000000     0.575340000000     0.150300000000     0          
H42      H      0.761300000000     0.556100000000     0.046100000000     0          
C43      C      0.786300000000     0.582270000000     0.205200000000     0          
C44      C      0.796200000000     0.592400000000     0.105400000000     0          
C45      C      0.806200000000     0.603690000000     0.222240000000     0          
C46      C      0.766900000000     0.606500000000     0.085800000000     0          
C47      C      0.837000000000     0.594000000000     0.095100000000     0          
H48      H      0.817300000000     0.615700000000     0.199700000000     0          
H49      H      0.738600000000     0.604100000000     0.098400000000     0          
C50      C      0.772900000000     0.626000000000     0.045500000000     0          
H51      H      0.858500000000     0.584500000000     0.111000000000     0          
C52      C      0.845100000000     0.613400000000     0.054000000000     0          
C53      C      0.815300000000     0.625800000000     0.026200000000     0          
H54      H      0.751400000000     0.636800000000     0.034700000000     0          
H55      H      0.874200000000     0.617200000000     0.047100000000     0          
C56      C      0.805900000000     0.654200000000     0.994300000000     0          
N57      N      0.850300000000     0.653840000000     0.972900000000     0          
O58      O      0.780200000000     0.672600000000     0.008900000000     0          
C59      C      0.868400000000     0.671530000000     0.936900000000     0          
C60      C      0.854460000000     0.695240000000     0.941400000000     0          
C61      C      0.901100000000     0.665530000000     0.899900000000     0          
H62      H      0.832600000000     0.699300000000     0.966100000000     0          
C63      C      0.873280000000     0.712940000000     0.908900000000     0          
C64      C      0.919910000000     0.683230000000     0.867400000000     0          
H65      H      0.910400000000     0.649700000000     0.896900000000     0          
H66      H      0.864000000000     0.728800000000     0.911900000000     0          
C67      C      0.906010000000     0.706940000000     0.871900000000     0          
H68      H      0.941800000000     0.679200000000     0.842600000000     0          
C69      C      0.928600000000     0.725900000000     0.837700000000     0          
O70      O      0.044200000000     0.719340000000     0.804060000000     0          
Zr71     Zr     0.942230000000     0.783870000000     0.677660000000     0          
O72      O      0.915750000000     0.747650000000     0.652260000000     0          
O73      O      0.921650000000     0.820100000000     0.645120000000     0          
C74      C      0.067900000000     0.841450000000     0.843800000000     0          
O75      O      0.956530000000     0.848490000000     0.804990000000     0          
C76      C      0.088900000000     0.860900000000     0.878000000000     0          
C77      C      0.076500000000     0.885230000000     0.867900000000     0          
C78      C      0.116800000000     0.855770000000     0.918200000000     0          
C79      C      0.094900000000     0.902950000000     0.898900000000     0          
H80      H      0.056400000000     0.888900000000     0.840700000000     0          
C81      C      0.135100000000     0.873730000000     0.950800000000     0          
H82      H      0.124200000000     0.839800000000     0.924800000000     0          
C83      C      0.123800000000     0.897510000000     0.941600000000     0          
H84      H      0.088200000000     0.918900000000     0.891500000000     0          
H85      H      0.154800000000     0.869800000000     0.978400000000     0          
N86      N      0.142000000000     0.914980000000     0.977100000000     0          
H87      H      0.159000000000     0.909700000000     0.002500000000     0          
C88      C      0.135400000000     0.939700000000     0.975400000000     0          
O89      O      0.108000000000     0.949380000000     0.942100000000     0          
C90      C      0.157200000000     0.952650000000     0.026200000000     0          
C91      C      0.191100000000     0.945130000000     0.051600000000     0          
C92      C      0.134900000000     0.973100000000     0.036300000000     0          
H93      H      0.204000000000     0.930500000000     0.042900000000     0          
C94      C      0.208300000000     0.960250000000     0.094000000000     0          
H95      H      0.109500000000     0.977500000000     0.017900000000     0          
C96      C      0.154300000000     0.987210000000     0.077700000000     0          
C97      C      0.190800000000     0.980920000000     0.106500000000     0          
H98      H      0.232700000000     0.955100000000     0.113400000000     0          
H99      H      0.141300000000     0.001900000000     0.086100000000     0          
C100     C      0.207800000000     0.997500000000     0.150200000000     0          
C101     C      0.201200000000     0.990720000000     0.205200000000     0          
C102     C      0.226500000000     0.019180000000     0.132500000000     0          
C103     C      0.181000000000     0.969140000000     0.222260000000     0          
N104     N      0.242700000000     0.037060000000     0.166390000000     0          
C105     C      0.235600000000     0.025450000000     0.076000000000     0          
H106     H      0.169800000000     0.957200000000     0.199600000000     0          
C107     C      0.259000000000     0.054340000000     0.133300000000     0          
C108     C      0.253500000000     0.047110000000     0.076700000000     0          
H109     H      0.230000000000     0.016100000000     0.045300000000     0          
C110     C      0.279700000000     0.075340000000     0.150300000000     0          
H111     H      0.261300000000     0.056100000000     0.046100000000     0          
C112     C      0.286300000000     0.082270000000     0.205200000000     0          
C113     C      0.296200000000     0.092400000000     0.105400000000     0          
C114     C      0.306200000000     0.103690000000     0.222240000000     0          
C115     C      0.266900000000     0.106500000000     0.085800000000     0          
C116     C      0.337000000000     0.094000000000     0.095100000000     0          
H117     H      0.317300000000     0.115700000000     0.199700000000     0          
H118     H      0.238600000000     0.104100000000     0.098400000000     0          
C119     C      0.272900000000     0.126000000000     0.045500000000     0          
H120     H      0.358500000000     0.084500000000     0.111000000000     0          
C121     C      0.345100000000     0.113400000000     0.054000000000     0          
C122     C      0.315300000000     0.125800000000     0.026200000000     0          
H123     H      0.251400000000     0.136800000000     0.034700000000     0          
H124     H      0.374200000000     0.117200000000     0.047100000000     0          
C125     C      0.305900000000     0.154200000000     0.994300000000     0          
N126     N      0.350300000000     0.153840000000     0.972900000000     0          
O127     O      0.280200000000     0.172600000000     0.008900000000     0          
C128     C      0.368400000000     0.171530000000     0.936900000000     0          
C129     C      0.354460000000     0.195240000000     0.941400000000     0          
C130     C      0.401100000000     0.165530000000     0.899900000000     0          
H131     H      0.332600000000     0.199300000000     0.966100000000     0          
C132     C      0.373280000000     0.212940000000     0.908900000000     0          
C133     C      0.419910000000     0.183230000000     0.867400000000     0          
H134     H      0.410400000000     0.149700000000     0.896900000000     0          
H135     H      0.364000000000     0.228800000000     0.911900000000     0          
C136     C      0.406010000000     0.206940000000     0.871900000000     0          
H137     H      0.441800000000     0.179200000000     0.842600000000     0          
C138     C      0.428600000000     0.225900000000     0.837700000000     0          
O139     O      0.455800000000     0.780660000000     0.304060000000     0          
Zr140    Zr     0.557770000000     0.716130000000     0.177660000000     0          
O141     O      0.584250000000     0.752350000000     0.152260000000     0          
O142     O      0.578350000000     0.679900000000     0.145120000000     0          
C143     C      0.432100000000     0.658550000000     0.343800000000     0          
O144     O      0.543470000000     0.651510000000     0.304990000000     0          
C145     C      0.411100000000     0.639100000000     0.378000000000     0          
C146     C      0.423500000000     0.614770000000     0.367900000000     0          
C147     C      0.383200000000     0.644230000000     0.418200000000     0          
C148     C      0.405100000000     0.597050000000     0.398900000000     0          
H149     H      0.443600000000     0.611100000000     0.340700000000     0          
C150     C      0.364900000000     0.626270000000     0.450800000000     0          
H151     H      0.375800000000     0.660200000000     0.424800000000     0          
C152     C      0.376200000000     0.602490000000     0.441600000000     0          
H153     H      0.411800000000     0.581100000000     0.391500000000     0          
H154     H      0.345200000000     0.630200000000     0.478400000000     0          
N155     N      0.358000000000     0.585020000000     0.477100000000     0          
H156     H      0.341000000000     0.590300000000     0.502500000000     0          
C157     C      0.364600000000     0.560300000000     0.475400000000     0          
O158     O      0.392000000000     0.550620000000     0.442100000000     0          
C159     C      0.342800000000     0.547350000000     0.526200000000     0          
C160     C      0.308900000000     0.554870000000     0.551600000000     0          
C161     C      0.365100000000     0.526900000000     0.536300000000     0          
H162     H      0.296000000000     0.569500000000     0.542900000000     0          
C163     C      0.291700000000     0.539750000000     0.594000000000     0          
H164     H      0.390500000000     0.522500000000     0.517900000000     0          
C165     C      0.345700000000     0.512790000000     0.577700000000     0          
C166     C      0.309200000000     0.519080000000     0.606500000000     0          
H167     H      0.267300000000     0.544900000000     0.613400000000     0          
H168     H      0.358700000000     0.498100000000     0.586100000000     0          
C169     C      0.292200000000     0.502500000000     0.650200000000     0          
C170     C      0.298800000000     0.509280000000     0.705200000000     0          
C171     C      0.273500000000     0.480820000000     0.632500000000     0          
C172     C      0.319000000000     0.530860000000     0.722260000000     0          
N173     N      0.257300000000     0.462940000000     0.666390000000     0          
C174     C      0.264400000000     0.474550000000     0.576000000000     0          
H175     H      0.330200000000     0.542800000000     0.699600000000     0          
C176     C      0.241000000000     0.445660000000     0.633300000000     0          
C177     C      0.246500000000     0.452890000000     0.576700000000     0          
H178     H      0.270000000000     0.483900000000     0.545300000000     0          
C179     C      0.220300000000     0.424660000000     0.650300000000     0          
H180     H      0.238700000000     0.443900000000     0.546100000000     0          
C181     C      0.213700000000     0.417730000000     0.705200000000     0          
C182     C      0.203800000000     0.407600000000     0.605400000000     0          
C183     C      0.193800000000     0.396310000000     0.722240000000     0          
C184     C      0.233100000000     0.393500000000     0.585800000000     0          
C185     C      0.163000000000     0.406000000000     0.595100000000     0          
H186     H      0.182700000000     0.384300000000     0.699700000000     0          
H187     H      0.261400000000     0.395900000000     0.598400000000     0          
C188     C      0.227100000000     0.374000000000     0.545500000000     0          
H189     H      0.141500000000     0.415500000000     0.611000000000     0          
C190     C      0.154900000000     0.386600000000     0.554000000000     0          
C191     C      0.184700000000     0.374200000000     0.526200000000     0          
H192     H      0.248600000000     0.363200000000     0.534700000000     0          
H193     H      0.125800000000     0.382800000000     0.547100000000     0          
C194     C      0.194100000000     0.345800000000     0.494300000000     0          
N195     N      0.149700000000     0.346160000000     0.472900000000     0          
O196     O      0.219800000000     0.327400000000     0.508900000000     0          
C197     C      0.131600000000     0.328470000000     0.436900000000     0          
C198     C      0.145540000000     0.304760000000     0.441400000000     0          
C199     C      0.098900000000     0.334470000000     0.399900000000     0          
H200     H      0.167400000000     0.300700000000     0.466100000000     0          
C201     C      0.126720000000     0.287060000000     0.408900000000     0          
C202     C      0.080090000000     0.316770000000     0.367400000000     0          
H203     H      0.089600000000     0.350300000000     0.396900000000     0          
H204     H      0.136000000000     0.271200000000     0.411900000000     0          
C205     C      0.093990000000     0.293060000000     0.371900000000     0          
H206     H      0.058200000000     0.320800000000     0.342600000000     0          
C207     C      0.071400000000     0.274100000000     0.337700000000     0          
O208     O      0.955800000000     0.280660000000     0.304060000000     0          
Zr209    Zr     0.057770000000     0.216130000000     0.177660000000     0          
O210     O      0.084250000000     0.252350000000     0.152260000000     0          
O211     O      0.078350000000     0.179900000000     0.145120000000     0          
C212     C      0.932100000000     0.158550000000     0.343800000000     0          
O213     O      0.043470000000     0.151510000000     0.304990000000     0          
C214     C      0.911100000000     0.139100000000     0.378000000000     0          
C215     C      0.923500000000     0.114770000000     0.367900000000     0          
C216     C      0.883200000000     0.144230000000     0.418200000000     0          
C217     C      0.905100000000     0.097050000000     0.398900000000     0          
H218     H      0.943600000000     0.111100000000     0.340700000000     0          
C219     C      0.864900000000     0.126270000000     0.450800000000     0          
H220     H      0.875800000000     0.160200000000     0.424800000000     0          
C221     C      0.876200000000     0.102490000000     0.441600000000     0          
H222     H      0.911800000000     0.081100000000     0.391500000000     0          
H223     H      0.845200000000     0.130200000000     0.478400000000     0          
N224     N      0.858000000000     0.085020000000     0.477100000000     0          
H225     H      0.841000000000     0.090300000000     0.502500000000     0          
C226     C      0.864600000000     0.060300000000     0.475400000000     0          
O227     O      0.892000000000     0.050620000000     0.442100000000     0          
C228     C      0.842800000000     0.047350000000     0.526200000000     0          
C229     C      0.808900000000     0.054870000000     0.551600000000     0          
C230     C      0.865100000000     0.026900000000     0.536300000000     0          
H231     H      0.796000000000     0.069500000000     0.542900000000     0          
C232     C      0.791700000000     0.039750000000     0.594000000000     0          
H233     H      0.890500000000     0.022500000000     0.517900000000     0          
C234     C      0.845700000000     0.012790000000     0.577700000000     0          
C235     C      0.809200000000     0.019080000000     0.606500000000     0          
H236     H      0.767300000000     0.044900000000     0.613400000000     0          
H237     H      0.858700000000     0.998100000000     0.586100000000     0          
C238     C      0.792200000000     0.002500000000     0.650200000000     0          
C239     C      0.798800000000     0.009280000000     0.705200000000     0          
C240     C      0.773500000000     0.980820000000     0.632500000000     0          
C241     C      0.819000000000     0.030860000000     0.722260000000     0          
N242     N      0.757300000000     0.962940000000     0.666390000000     0          
C243     C      0.764400000000     0.974550000000     0.576000000000     0          
H244     H      0.830200000000     0.042800000000     0.699600000000     0          
C245     C      0.741000000000     0.945660000000     0.633300000000     0          
C246     C      0.746500000000     0.952890000000     0.576700000000     0          
H247     H      0.770000000000     0.983900000000     0.545300000000     0          
C248     C      0.720300000000     0.924660000000     0.650300000000     0          
H249     H      0.738700000000     0.943900000000     0.546100000000     0          
C250     C      0.713700000000     0.917730000000     0.705200000000     0          
C251     C      0.703800000000     0.907600000000     0.605400000000     0          
C252     C      0.693800000000     0.896310000000     0.722240000000     0          
C253     C      0.733100000000     0.893500000000     0.585800000000     0          
C254     C      0.663000000000     0.906000000000     0.595100000000     0          
H255     H      0.682700000000     0.884300000000     0.699700000000     0          
H256     H      0.761400000000     0.895900000000     0.598400000000     0          
C257     C      0.727100000000     0.874000000000     0.545500000000     0          
H258     H      0.641500000000     0.915500000000     0.611000000000     0          
C259     C      0.654900000000     0.886600000000     0.554000000000     0          
C260     C      0.684700000000     0.874200000000     0.526200000000     0          
H261     H      0.748600000000     0.863200000000     0.534700000000     0          
H262     H      0.625800000000     0.882800000000     0.547100000000     0          
C263     C      0.694100000000     0.845800000000     0.494300000000     0          
N264     N      0.649700000000     0.846160000000     0.472900000000     0          
O265     O      0.719800000000     0.827400000000     0.508900000000     0          
C266     C      0.631600000000     0.828470000000     0.436900000000     0          
C267     C      0.645540000000     0.804760000000     0.441400000000     0          
C268     C      0.598900000000     0.834470000000     0.399900000000     0          
H269     H      0.667400000000     0.800700000000     0.466100000000     0          
C270     C      0.626720000000     0.787060000000     0.408900000000     0          
C271     C      0.580090000000     0.816770000000     0.367400000000     0          
H272     H      0.589600000000     0.850300000000     0.396900000000     0          
H273     H      0.636000000000     0.771200000000     0.411900000000     0          
C274     C      0.593990000000     0.793060000000     0.371900000000     0          
H275     H      0.558200000000     0.820800000000     0.342600000000     0          
C276     C      0.571400000000     0.774100000000     0.337700000000     0          
O277     O      0.455800000000     0.219340000000     0.695940000000     0          
Zr278    Zr     0.557770000000     0.283870000000     0.822340000000     0          
O279     O      0.584250000000     0.247650000000     0.847740000000     0          
O280     O      0.578350000000     0.320100000000     0.854880000000     0          
C281     C      0.432100000000     0.341450000000     0.656200000000     0          
O282     O      0.543470000000     0.348490000000     0.695010000000     0          
C283     C      0.411100000000     0.360900000000     0.622000000000     0          
C284     C      0.423500000000     0.385230000000     0.632100000000     0          
C285     C      0.383200000000     0.355770000000     0.581800000000     0          
C286     C      0.405100000000     0.402950000000     0.601100000000     0          
H287     H      0.443600000000     0.388900000000     0.659300000000     0          
C288     C      0.364900000000     0.373730000000     0.549200000000     0          
H289     H      0.375800000000     0.339800000000     0.575200000000     0          
C290     C      0.376200000000     0.397510000000     0.558400000000     0          
H291     H      0.411800000000     0.418900000000     0.608500000000     0          
H292     H      0.345200000000     0.369800000000     0.521600000000     0          
N293     N      0.358000000000     0.414980000000     0.522900000000     0          
H294     H      0.341000000000     0.409700000000     0.497500000000     0          
C295     C      0.364600000000     0.439700000000     0.524600000000     0          
O296     O      0.392000000000     0.449380000000     0.557900000000     0          
C297     C      0.342800000000     0.452650000000     0.473800000000     0          
C298     C      0.308900000000     0.445130000000     0.448400000000     0          
C299     C      0.365100000000     0.473100000000     0.463700000000     0          
H300     H      0.296000000000     0.430500000000     0.457100000000     0          
C301     C      0.291700000000     0.460250000000     0.406000000000     0          
H302     H      0.390500000000     0.477500000000     0.482100000000     0          
C303     C      0.345700000000     0.487210000000     0.422300000000     0          
C304     C      0.309200000000     0.480920000000     0.393500000000     0          
H305     H      0.267300000000     0.455100000000     0.386600000000     0          
H306     H      0.358700000000     0.501900000000     0.413900000000     0          
C307     C      0.292200000000     0.497500000000     0.349800000000     0          
C308     C      0.298800000000     0.490720000000     0.294800000000     0          
C309     C      0.273500000000     0.519180000000     0.367500000000     0          
C310     C      0.319000000000     0.469140000000     0.277740000000     0          
N311     N      0.257300000000     0.537060000000     0.333610000000     0          
C312     C      0.264400000000     0.525450000000     0.424000000000     0          
H313     H      0.330200000000     0.457200000000     0.300400000000     0          
C314     C      0.241000000000     0.554340000000     0.366700000000     0          
C315     C      0.246500000000     0.547110000000     0.423300000000     0          
H316     H      0.270000000000     0.516100000000     0.454700000000     0          
C317     C      0.220300000000     0.575340000000     0.349700000000     0          
H318     H      0.238700000000     0.556100000000     0.453900000000     0          
C319     C      0.213700000000     0.582270000000     0.294800000000     0          
C320     C      0.203800000000     0.592400000000     0.394600000000     0          
C321     C      0.193800000000     0.603690000000     0.277760000000     0          
C322     C      0.233100000000     0.606500000000     0.414200000000     0          
C323     C      0.163000000000     0.594000000000     0.404900000000     0          
H324     H      0.182700000000     0.615700000000     0.300300000000     0          
H325     H      0.261400000000     0.604100000000     0.401600000000     0          
C326     C      0.227100000000     0.626000000000     0.454500000000     0          
H327     H      0.141500000000     0.584500000000     0.389000000000     0          
C328     C      0.154900000000     0.613400000000     0.446000000000     0          
C329     C      0.184700000000     0.625800000000     0.473800000000     0          
H330     H      0.248600000000     0.636800000000     0.465300000000     0          
H331     H      0.125800000000     0.617200000000     0.452900000000     0          
C332     C      0.194100000000     0.654200000000     0.505700000000     0          
N333     N      0.149700000000     0.653840000000     0.527100000000     0          
O334     O      0.219800000000     0.672600000000     0.491100000000     0          
C335     C      0.131600000000     0.671530000000     0.563100000000     0          
C336     C      0.145540000000     0.695240000000     0.558600000000     0          
C337     C      0.098900000000     0.665530000000     0.600100000000     0          
H338     H      0.167400000000     0.699300000000     0.533900000000     0          
C339     C      0.126720000000     0.712940000000     0.591100000000     0          
C340     C      0.080090000000     0.683230000000     0.632600000000     0          
H341     H      0.089600000000     0.649700000000     0.603100000000     0          
H342     H      0.136000000000     0.728800000000     0.588100000000     0          
C343     C      0.093990000000     0.706940000000     0.628100000000     0          
H344     H      0.058200000000     0.679200000000     0.657400000000     0          
C345     C      0.071400000000     0.725900000000     0.662300000000     0          
O346     O      0.955800000000     0.719340000000     0.695940000000     0          
Zr347    Zr     0.057770000000     0.783870000000     0.822340000000     0          
O348     O      0.084250000000     0.747650000000     0.847740000000     0          
O349     O      0.078350000000     0.820100000000     0.854880000000     0          
C350     C      0.932100000000     0.841450000000     0.656200000000     0          
O351     O      0.043470000000     0.848490000000     0.695010000000     0          
C352     C      0.911100000000     0.860900000000     0.622000000000     0          
C353     C      0.923500000000     0.885230000000     0.632100000000     0          
C354     C      0.883200000000     0.855770000000     0.581800000000     0          
C355     C      0.905100000000     0.902950000000     0.601100000000     0          
H356     H      0.943600000000     0.888900000000     0.659300000000     0          
C357     C      0.864900000000     0.873730000000     0.549200000000     0          
H358     H      0.875800000000     0.839800000000     0.575200000000     0          
C359     C      0.876200000000     0.897510000000     0.558400000000     0          
H360     H      0.911800000000     0.918900000000     0.608500000000     0          
H361     H      0.845200000000     0.869800000000     0.521600000000     0          
N362     N      0.858000000000     0.914980000000     0.522900000000     0          
H363     H      0.841000000000     0.909700000000     0.497500000000     0          
C364     C      0.864600000000     0.939700000000     0.524600000000     0          
O365     O      0.892000000000     0.949380000000     0.557900000000     0          
C366     C      0.842800000000     0.952650000000     0.473800000000     0          
C367     C      0.808900000000     0.945130000000     0.448400000000     0          
C368     C      0.865100000000     0.973100000000     0.463700000000     0          
H369     H      0.796000000000     0.930500000000     0.457100000000     0          
C370     C      0.791700000000     0.960250000000     0.406000000000     0          
H371     H      0.890500000000     0.977500000000     0.482100000000     0          
C372     C      0.845700000000     0.987210000000     0.422300000000     0          
C373     C      0.809200000000     0.980920000000     0.393500000000     0          
H374     H      0.767300000000     0.955100000000     0.386600000000     0          
H375     H      0.858700000000     0.001900000000     0.413900000000     0          
C376     C      0.792200000000     0.997500000000     0.349800000000     0          
C377     C      0.798800000000     0.990720000000     0.294800000000     0          
C378     C      0.773500000000     0.019180000000     0.367500000000     0          
C379     C      0.819000000000     0.969140000000     0.277740000000     0          
N380     N      0.757300000000     0.037060000000     0.333610000000     0          
C381     C      0.764400000000     0.025450000000     0.424000000000     0          
H382     H      0.830200000000     0.957200000000     0.300400000000     0          
C383     C      0.741000000000     0.054340000000     0.366700000000     0          
C384     C      0.746500000000     0.047110000000     0.423300000000     0          
H385     H      0.770000000000     0.016100000000     0.454700000000     0          
C386     C      0.720300000000     0.075340000000     0.349700000000     0          
H387     H      0.738700000000     0.056100000000     0.453900000000     0          
C388     C      0.713700000000     0.082270000000     0.294800000000     0          
C389     C      0.703800000000     0.092400000000     0.394600000000     0          
C390     C      0.693800000000     0.103690000000     0.277760000000     0          
C391     C      0.733100000000     0.106500000000     0.414200000000     0          
C392     C      0.663000000000     0.094000000000     0.404900000000     0          
H393     H      0.682700000000     0.115700000000     0.300300000000     0          
H394     H      0.761400000000     0.104100000000     0.401600000000     0          
C395     C      0.727100000000     0.126000000000     0.454500000000     0          
H396     H      0.641500000000     0.084500000000     0.389000000000     0          
C397     C      0.654900000000     0.113400000000     0.446000000000     0          
C398     C      0.684700000000     0.125800000000     0.473800000000     0          
H399     H      0.748600000000     0.136800000000     0.465300000000     0          
H400     H      0.625800000000     0.117200000000     0.452900000000     0          
C401     C      0.694100000000     0.154200000000     0.505700000000     0          
N402     N      0.649700000000     0.153840000000     0.527100000000     0          
O403     O      0.719800000000     0.172600000000     0.491100000000     0          
C404     C      0.631600000000     0.171530000000     0.563100000000     0          
C405     C      0.645540000000     0.195240000000     0.558600000000     0          
C406     C      0.598900000000     0.165530000000     0.600100000000     0          
H407     H      0.667400000000     0.199300000000     0.533900000000     0          
C408     C      0.626720000000     0.212940000000     0.591100000000     0          
C409     C      0.580090000000     0.183230000000     0.632600000000     0          
H410     H      0.589600000000     0.149700000000     0.603100000000     0          
H411     H      0.636000000000     0.228800000000     0.588100000000     0          
C412     C      0.593990000000     0.206940000000     0.628100000000     0          
H413     H      0.558200000000     0.179200000000     0.657400000000     0          
C414     C      0.571400000000     0.225900000000     0.662300000000     0          
O415     O      0.544200000000     0.780660000000     0.195940000000     0          
Zr416    Zr     0.442230000000     0.716130000000     0.322340000000     0          
O417     O      0.415750000000     0.752350000000     0.347740000000     0          
O418     O      0.421650000000     0.679900000000     0.354880000000     0          
C419     C      0.567900000000     0.658550000000     0.156200000000     0          
O420     O      0.456530000000     0.651510000000     0.195010000000     0          
C421     C      0.588900000000     0.639100000000     0.122000000000     0          
C422     C      0.576500000000     0.614770000000     0.132100000000     0          
C423     C      0.616800000000     0.644230000000     0.081800000000     0          
C424     C      0.594900000000     0.597050000000     0.101100000000     0          
H425     H      0.556400000000     0.611100000000     0.159300000000     0          
C426     C      0.635100000000     0.626270000000     0.049200000000     0          
H427     H      0.624200000000     0.660200000000     0.075200000000     0          
C428     C      0.623800000000     0.602490000000     0.058400000000     0          
H429     H      0.588200000000     0.581100000000     0.108500000000     0          
H430     H      0.654800000000     0.630200000000     0.021600000000     0          
N431     N      0.642000000000     0.585020000000     0.022900000000     0          
H432     H      0.659000000000     0.590300000000     0.997500000000     0          
C433     C      0.635400000000     0.560300000000     0.024600000000     0          
O434     O      0.608000000000     0.550620000000     0.057900000000     0          
C435     C      0.657200000000     0.547350000000     0.973800000000     0          
C436     C      0.691100000000     0.554870000000     0.948400000000     0          
C437     C      0.634900000000     0.526900000000     0.963700000000     0          
H438     H      0.704000000000     0.569500000000     0.957100000000     0          
C439     C      0.708300000000     0.539750000000     0.906000000000     0          
H440     H      0.609500000000     0.522500000000     0.982100000000     0          
C441     C      0.654300000000     0.512790000000     0.922300000000     0          
C442     C      0.690800000000     0.519080000000     0.893500000000     0          
H443     H      0.732700000000     0.544900000000     0.886600000000     0          
H444     H      0.641300000000     0.498100000000     0.913900000000     0          
C445     C      0.707800000000     0.502500000000     0.849800000000     0          
C446     C      0.701200000000     0.509280000000     0.794800000000     0          
C447     C      0.726500000000     0.480820000000     0.867500000000     0          
C448     C      0.681000000000     0.530860000000     0.777740000000     0          
N449     N      0.742700000000     0.462940000000     0.833610000000     0          
C450     C      0.735600000000     0.474550000000     0.924000000000     0          
H451     H      0.669800000000     0.542800000000     0.800400000000     0          
C452     C      0.759000000000     0.445660000000     0.866700000000     0          
C453     C      0.753500000000     0.452890000000     0.923300000000     0          
H454     H      0.730000000000     0.483900000000     0.954700000000     0          
C455     C      0.779700000000     0.424660000000     0.849700000000     0          
H456     H      0.761300000000     0.443900000000     0.953900000000     0          
C457     C      0.786300000000     0.417730000000     0.794800000000     0          
C458     C      0.796200000000     0.407600000000     0.894600000000     0          
C459     C      0.806200000000     0.396310000000     0.777760000000     0          
C460     C      0.766900000000     0.393500000000     0.914200000000     0          
C461     C      0.837000000000     0.406000000000     0.904900000000     0          
H462     H      0.817300000000     0.384300000000     0.800300000000     0          
H463     H      0.738600000000     0.395900000000     0.901600000000     0          
C464     C      0.772900000000     0.374000000000     0.954500000000     0          
H465     H      0.858500000000     0.415500000000     0.889000000000     0          
C466     C      0.845100000000     0.386600000000     0.946000000000     0          
C467     C      0.815300000000     0.374200000000     0.973800000000     0          
H468     H      0.751400000000     0.363200000000     0.965300000000     0          
H469     H      0.874200000000     0.382800000000     0.952900000000     0          
C470     C      0.805900000000     0.345800000000     0.005700000000     0          
N471     N      0.850300000000     0.346160000000     0.027100000000     0          
O472     O      0.780200000000     0.327400000000     0.991100000000     0          
C473     C      0.868400000000     0.328470000000     0.063100000000     0          
C474     C      0.854460000000     0.304760000000     0.058600000000     0          
C475     C      0.901100000000     0.334470000000     0.100100000000     0          
H476     H      0.832600000000     0.300700000000     0.033900000000     0          
C477     C      0.873280000000     0.287060000000     0.091100000000     0          
C478     C      0.919910000000     0.316770000000     0.132600000000     0          
H479     H      0.910400000000     0.350300000000     0.103100000000     0          
H480     H      0.864000000000     0.271200000000     0.088100000000     0          
C481     C      0.906010000000     0.293060000000     0.128100000000     0          
H482     H      0.941800000000     0.320800000000     0.157400000000     0          
C483     C      0.928600000000     0.274100000000     0.162300000000     0          
O484     O      0.044200000000     0.280660000000     0.195940000000     0          
Zr485    Zr     0.942230000000     0.216130000000     0.322340000000     0          
O486     O      0.915750000000     0.252350000000     0.347740000000     0          
O487     O      0.921650000000     0.179900000000     0.354880000000     0          
C488     C      0.067900000000     0.158550000000     0.156200000000     0          
O489     O      0.956530000000     0.151510000000     0.195010000000     0          
C490     C      0.088900000000     0.139100000000     0.122000000000     0          
C491     C      0.076500000000     0.114770000000     0.132100000000     0          
C492     C      0.116800000000     0.144230000000     0.081800000000     0          
C493     C      0.094900000000     0.097050000000     0.101100000000     0          
H494     H      0.056400000000     0.111100000000     0.159300000000     0          
C495     C      0.135100000000     0.126270000000     0.049200000000     0          
H496     H      0.124200000000     0.160200000000     0.075200000000     0          
C497     C      0.123800000000     0.102490000000     0.058400000000     0          
H498     H      0.088200000000     0.081100000000     0.108500000000     0          
H499     H      0.154800000000     0.130200000000     0.021600000000     0          
N500     N      0.142000000000     0.085020000000     0.022900000000     0          
H501     H      0.159000000000     0.090300000000     0.997500000000     0          
C502     C      0.135400000000     0.060300000000     0.024600000000     0          
O503     O      0.108000000000     0.050620000000     0.057900000000     0          
C504     C      0.157200000000     0.047350000000     0.973800000000     0          
C505     C      0.191100000000     0.054870000000     0.948400000000     0          
C506     C      0.134900000000     0.026900000000     0.963700000000     0          
H507     H      0.204000000000     0.069500000000     0.957100000000     0          
C508     C      0.208300000000     0.039750000000     0.906000000000     0          
H509     H      0.109500000000     0.022500000000     0.982100000000     0          
C510     C      0.154300000000     0.012790000000     0.922300000000     0          
C511     C      0.190800000000     0.019080000000     0.893500000000     0          
H512     H      0.232700000000     0.044900000000     0.886600000000     0          
H513     H      0.141300000000     0.998100000000     0.913900000000     0          
C514     C      0.207800000000     0.002500000000     0.849800000000     0          
C515     C      0.201200000000     0.009280000000     0.794800000000     0          
C516     C      0.226500000000     0.980820000000     0.867500000000     0          
C517     C      0.181000000000     0.030860000000     0.777740000000     0          
N518     N      0.242700000000     0.962940000000     0.833610000000     0          
C519     C      0.235600000000     0.974550000000     0.924000000000     0          
H520     H      0.169800000000     0.042800000000     0.800400000000     0          
C521     C      0.259000000000     0.945660000000     0.866700000000     0          
C522     C      0.253500000000     0.952890000000     0.923300000000     0          
H523     H      0.230000000000     0.983900000000     0.954700000000     0          
C524     C      0.279700000000     0.924660000000     0.849700000000     0          
H525     H      0.261300000000     0.943900000000     0.953900000000     0          
C526     C      0.286300000000     0.917730000000     0.794800000000     0          
C527     C      0.296200000000     0.907600000000     0.894600000000     0          
C528     C      0.306200000000     0.896310000000     0.777760000000     0          
C529     C      0.266900000000     0.893500000000     0.914200000000     0          
C530     C      0.337000000000     0.906000000000     0.904900000000     0          
H531     H      0.317300000000     0.884300000000     0.800300000000     0          
H532     H      0.238600000000     0.895900000000     0.901600000000     0          
C533     C      0.272900000000     0.874000000000     0.954500000000     0          
H534     H      0.358500000000     0.915500000000     0.889000000000     0          
C535     C      0.345100000000     0.886600000000     0.946000000000     0          
C536     C      0.315300000000     0.874200000000     0.973800000000     0          
H537     H      0.251400000000     0.863200000000     0.965300000000     0          
H538     H      0.374200000000     0.882800000000     0.952900000000     0          
C539     C      0.305900000000     0.845800000000     0.005700000000     0          
N540     N      0.350300000000     0.846160000000     0.027100000000     0          
O541     O      0.280200000000     0.827400000000     0.991100000000     0          
C542     C      0.368400000000     0.828470000000     0.063100000000     0          
C543     C      0.354460000000     0.804760000000     0.058600000000     0          
C544     C      0.401100000000     0.834470000000     0.100100000000     0          
H545     H      0.332600000000     0.800700000000     0.033900000000     0          
C546     C      0.373280000000     0.787060000000     0.091100000000     0          
C547     C      0.419910000000     0.816770000000     0.132600000000     0          
H548     H      0.410400000000     0.850300000000     0.103100000000     0          
H549     H      0.364000000000     0.771200000000     0.088100000000     0          
C550     C      0.406010000000     0.793060000000     0.128100000000     0          
H551     H      0.441800000000     0.820800000000     0.157400000000     0          
C552     C      0.428600000000     0.774100000000     0.162300000000     0          
O553     O      0.455800000000     0.780660000000     0.195940000000     0          
Zr554    Zr     0.557770000000     0.716130000000     0.322340000000     0          
O555     O      0.584250000000     0.752350000000     0.347740000000     0          
O556     O      0.578350000000     0.679900000000     0.354880000000     0          
C557     C      0.432100000000     0.658550000000     0.156200000000     0          
O558     O      0.543470000000     0.651510000000     0.195010000000     0          
C559     C      0.411100000000     0.639100000000     0.122000000000     0          
C560     C      0.423500000000     0.614770000000     0.132100000000     0          
C561     C      0.383200000000     0.644230000000     0.081800000000     0          
C562     C      0.405100000000     0.597050000000     0.101100000000     0          
H563     H      0.443600000000     0.611100000000     0.159300000000     0          
C564     C      0.364900000000     0.626270000000     0.049200000000     0          
H565     H      0.375800000000     0.660200000000     0.075200000000     0          
C566     C      0.376200000000     0.602490000000     0.058400000000     0          
H567     H      0.411800000000     0.581100000000     0.108500000000     0          
H568     H      0.345200000000     0.630200000000     0.021600000000     0          
N569     N      0.358000000000     0.585020000000     0.022900000000     0          
H570     H      0.341000000000     0.590300000000     0.997500000000     0          
C571     C      0.364600000000     0.560300000000     0.024600000000     0          
O572     O      0.392000000000     0.550620000000     0.057900000000     0          
C573     C      0.342800000000     0.547350000000     0.973800000000     0          
C574     C      0.308900000000     0.554870000000     0.948400000000     0          
C575     C      0.365100000000     0.526900000000     0.963700000000     0          
H576     H      0.296000000000     0.569500000000     0.957100000000     0          
C577     C      0.291700000000     0.539750000000     0.906000000000     0          
H578     H      0.390500000000     0.522500000000     0.982100000000     0          
C579     C      0.345700000000     0.512790000000     0.922300000000     0          
C580     C      0.309200000000     0.519080000000     0.893500000000     0          
H581     H      0.267300000000     0.544900000000     0.886600000000     0          
H582     H      0.358700000000     0.498100000000     0.913900000000     0          
C583     C      0.292200000000     0.502500000000     0.849800000000     0          
C584     C      0.298800000000     0.509280000000     0.794800000000     0          
C585     C      0.273500000000     0.480820000000     0.867500000000     0          
C586     C      0.319000000000     0.530860000000     0.777740000000     0          
N587     N      0.257300000000     0.462940000000     0.833610000000     0          
C588     C      0.264400000000     0.474550000000     0.924000000000     0          
H589     H      0.330200000000     0.542800000000     0.800400000000     0          
C590     C      0.241000000000     0.445660000000     0.866700000000     0          
C591     C      0.246500000000     0.452890000000     0.923300000000     0          
H592     H      0.270000000000     0.483900000000     0.954700000000     0          
C593     C      0.220300000000     0.424660000000     0.849700000000     0          
H594     H      0.238700000000     0.443900000000     0.953900000000     0          
C595     C      0.213700000000     0.417730000000     0.794800000000     0          
C596     C      0.203800000000     0.407600000000     0.894600000000     0          
C597     C      0.193800000000     0.396310000000     0.777760000000     0          
C598     C      0.233100000000     0.393500000000     0.914200000000     0          
C599     C      0.163000000000     0.406000000000     0.904900000000     0          
H600     H      0.182700000000     0.384300000000     0.800300000000     0          
H601     H      0.261400000000     0.395900000000     0.901600000000     0          
C602     C      0.227100000000     0.374000000000     0.954500000000     0          
H603     H      0.141500000000     0.415500000000     0.889000000000     0          
C604     C      0.154900000000     0.386600000000     0.946000000000     0          
C605     C      0.184700000000     0.374200000000     0.973800000000     0          
H606     H      0.248600000000     0.363200000000     0.965300000000     0          
H607     H      0.125800000000     0.382800000000     0.952900000000     0          
C608     C      0.194100000000     0.345800000000     0.005700000000     0          
N609     N      0.149700000000     0.346160000000     0.027100000000     0          
O610     O      0.219800000000     0.327400000000     0.991100000000     0          
C611     C      0.131600000000     0.328470000000     0.063100000000     0          
C612     C      0.145540000000     0.304760000000     0.058600000000     0          
C613     C      0.098900000000     0.334470000000     0.100100000000     0          
H614     H      0.167400000000     0.300700000000     0.033900000000     0          
C615     C      0.126720000000     0.287060000000     0.091100000000     0          
C616     C      0.080090000000     0.316770000000     0.132600000000     0          
H617     H      0.089600000000     0.350300000000     0.103100000000     0          
H618     H      0.136000000000     0.271200000000     0.088100000000     0          
C619     C      0.093990000000     0.293060000000     0.128100000000     0          
H620     H      0.058200000000     0.320800000000     0.157400000000     0          
C621     C      0.071400000000     0.274100000000     0.162300000000     0          
O622     O      0.955800000000     0.280660000000     0.195940000000     0          
Zr623    Zr     0.057770000000     0.216130000000     0.322340000000     0          
O624     O      0.084250000000     0.252350000000     0.347740000000     0          
O625     O      0.078350000000     0.179900000000     0.354880000000     0          
C626     C      0.932100000000     0.158550000000     0.156200000000     0          
O627     O      0.043470000000     0.151510000000     0.195010000000     0          
C628     C      0.911100000000     0.139100000000     0.122000000000     0          
C629     C      0.923500000000     0.114770000000     0.132100000000     0          
C630     C      0.883200000000     0.144230000000     0.081800000000     0          
C631     C      0.905100000000     0.097050000000     0.101100000000     0          
H632     H      0.943600000000     0.111100000000     0.159300000000     0          
C633     C      0.864900000000     0.126270000000     0.049200000000     0          
H634     H      0.875800000000     0.160200000000     0.075200000000     0          
C635     C      0.876200000000     0.102490000000     0.058400000000     0          
H636     H      0.911800000000     0.081100000000     0.108500000000     0          
H637     H      0.845200000000     0.130200000000     0.021600000000     0          
N638     N      0.858000000000     0.085020000000     0.022900000000     0          
H639     H      0.841000000000     0.090300000000     0.997500000000     0          
C640     C      0.864600000000     0.060300000000     0.024600000000     0          
O641     O      0.892000000000     0.050620000000     0.057900000000     0          
C642     C      0.842800000000     0.047350000000     0.973800000000     0          
C643     C      0.808900000000     0.054870000000     0.948400000000     0          
C644     C      0.865100000000     0.026900000000     0.963700000000     0          
H645     H      0.796000000000     0.069500000000     0.957100000000     0          
C646     C      0.791700000000     0.039750000000     0.906000000000     0          
H647     H      0.890500000000     0.022500000000     0.982100000000     0          
C648     C      0.845700000000     0.012790000000     0.922300000000     0          
C649     C      0.809200000000     0.019080000000     0.893500000000     0          
H650     H      0.767300000000     0.044900000000     0.886600000000     0          
H651     H      0.858700000000     0.998100000000     0.913900000000     0          
C652     C      0.792200000000     0.002500000000     0.849800000000     0          
C653     C      0.798800000000     0.009280000000     0.794800000000     0          
C654     C      0.773500000000     0.980820000000     0.867500000000     0          
C655     C      0.819000000000     0.030860000000     0.777740000000     0          
N656     N      0.757300000000     0.962940000000     0.833610000000     0          
C657     C      0.764400000000     0.974550000000     0.924000000000     0          
H658     H      0.830200000000     0.042800000000     0.800400000000     0          
C659     C      0.741000000000     0.945660000000     0.866700000000     0          
C660     C      0.746500000000     0.952890000000     0.923300000000     0          
H661     H      0.770000000000     0.983900000000     0.954700000000     0          
C662     C      0.720300000000     0.924660000000     0.849700000000     0          
H663     H      0.738700000000     0.943900000000     0.953900000000     0          
C664     C      0.713700000000     0.917730000000     0.794800000000     0          
C665     C      0.703800000000     0.907600000000     0.894600000000     0          
C666     C      0.693800000000     0.896310000000     0.777760000000     0          
C667     C      0.733100000000     0.893500000000     0.914200000000     0          
C668     C      0.663000000000     0.906000000000     0.904900000000     0          
H669     H      0.682700000000     0.884300000000     0.800300000000     0          
H670     H      0.761400000000     0.895900000000     0.901600000000     0          
C671     C      0.727100000000     0.874000000000     0.954500000000     0          
H672     H      0.641500000000     0.915500000000     0.889000000000     0          
C673     C      0.654900000000     0.886600000000     0.946000000000     0          
C674     C      0.684700000000     0.874200000000     0.973800000000     0          
H675     H      0.748600000000     0.863200000000     0.965300000000     0          
H676     H      0.625800000000     0.882800000000     0.952900000000     0          
C677     C      0.694100000000     0.845800000000     0.005700000000     0          
N678     N      0.649700000000     0.846160000000     0.027100000000     0          
O679     O      0.719800000000     0.827400000000     0.991100000000     0          
C680     C      0.631600000000     0.828470000000     0.063100000000     0          
C681     C      0.645540000000     0.804760000000     0.058600000000     0          
C682     C      0.598900000000     0.834470000000     0.100100000000     0          
H683     H      0.667400000000     0.800700000000     0.033900000000     0          
C684     C      0.626720000000     0.787060000000     0.091100000000     0          
C685     C      0.580090000000     0.816770000000     0.132600000000     0          
H686     H      0.589600000000     0.850300000000     0.103100000000     0          
H687     H      0.636000000000     0.771200000000     0.088100000000     0          
C688     C      0.593990000000     0.793060000000     0.128100000000     0          
H689     H      0.558200000000     0.820800000000     0.157400000000     0          
C690     C      0.571400000000     0.774100000000     0.162300000000     0          
O691     O      0.544200000000     0.219340000000     0.695940000000     0          
Zr692    Zr     0.442230000000     0.283870000000     0.822340000000     0          
O693     O      0.415750000000     0.247650000000     0.847740000000     0          
O694     O      0.421650000000     0.320100000000     0.854880000000     0          
C695     C      0.567900000000     0.341450000000     0.656200000000     0          
O696     O      0.456530000000     0.348490000000     0.695010000000     0          
C697     C      0.588900000000     0.360900000000     0.622000000000     0          
C698     C      0.576500000000     0.385230000000     0.632100000000     0          
C699     C      0.616800000000     0.355770000000     0.581800000000     0          
C700     C      0.594900000000     0.402950000000     0.601100000000     0          
H701     H      0.556400000000     0.388900000000     0.659300000000     0          
C702     C      0.635100000000     0.373730000000     0.549200000000     0          
H703     H      0.624200000000     0.339800000000     0.575200000000     0          
C704     C      0.623800000000     0.397510000000     0.558400000000     0          
H705     H      0.588200000000     0.418900000000     0.608500000000     0          
H706     H      0.654800000000     0.369800000000     0.521600000000     0          
N707     N      0.642000000000     0.414980000000     0.522900000000     0          
H708     H      0.659000000000     0.409700000000     0.497500000000     0          
C709     C      0.635400000000     0.439700000000     0.524600000000     0          
O710     O      0.608000000000     0.449380000000     0.557900000000     0          
C711     C      0.657200000000     0.452650000000     0.473800000000     0          
C712     C      0.691100000000     0.445130000000     0.448400000000     0          
C713     C      0.634900000000     0.473100000000     0.463700000000     0          
H714     H      0.704000000000     0.430500000000     0.457100000000     0          
C715     C      0.708300000000     0.460250000000     0.406000000000     0          
H716     H      0.609500000000     0.477500000000     0.482100000000     0          
C717     C      0.654300000000     0.487210000000     0.422300000000     0          
C718     C      0.690800000000     0.480920000000     0.393500000000     0          
H719     H      0.732700000000     0.455100000000     0.386600000000     0          
H720     H      0.641300000000     0.501900000000     0.413900000000     0          
C721     C      0.707800000000     0.497500000000     0.349800000000     0          
C722     C      0.701200000000     0.490720000000     0.294800000000     0          
C723     C      0.726500000000     0.519180000000     0.367500000000     0          
C724     C      0.681000000000     0.469140000000     0.277740000000     0          
N725     N      0.742700000000     0.537060000000     0.333610000000     0          
C726     C      0.735600000000     0.525450000000     0.424000000000     0          
H727     H      0.669800000000     0.457200000000     0.300400000000     0          
C728     C      0.759000000000     0.554340000000     0.366700000000     0          
C729     C      0.753500000000     0.547110000000     0.423300000000     0          
H730     H      0.730000000000     0.516100000000     0.454700000000     0          
C731     C      0.779700000000     0.575340000000     0.349700000000     0          
H732     H      0.761300000000     0.556100000000     0.453900000000     0          
C733     C      0.786300000000     0.582270000000     0.294800000000     0          
C734     C      0.796200000000     0.592400000000     0.394600000000     0          
C735     C      0.806200000000     0.603690000000     0.277760000000     0          
C736     C      0.766900000000     0.606500000000     0.414200000000     0          
C737     C      0.837000000000     0.594000000000     0.404900000000     0          
H738     H      0.817300000000     0.615700000000     0.300300000000     0          
H739     H      0.738600000000     0.604100000000     0.401600000000     0          
C740     C      0.772900000000     0.626000000000     0.454500000000     0          
H741     H      0.858500000000     0.584500000000     0.389000000000     0          
C742     C      0.845100000000     0.613400000000     0.446000000000     0          
C743     C      0.815300000000     0.625800000000     0.473800000000     0          
H744     H      0.751400000000     0.636800000000     0.465300000000     0          
H745     H      0.874200000000     0.617200000000     0.452900000000     0          
C746     C      0.805900000000     0.654200000000     0.505700000000     0          
N747     N      0.850300000000     0.653840000000     0.527100000000     0          
O748     O      0.780200000000     0.672600000000     0.491100000000     0          
C749     C      0.868400000000     0.671530000000     0.563100000000     0          
C750     C      0.854460000000     0.695240000000     0.558600000000     0          
C751     C      0.901100000000     0.665530000000     0.600100000000     0          
H752     H      0.832600000000     0.699300000000     0.533900000000     0          
C753     C      0.873280000000     0.712940000000     0.591100000000     0          
C754     C      0.919910000000     0.683230000000     0.632600000000     0          
H755     H      0.910400000000     0.649700000000     0.603100000000     0          
H756     H      0.864000000000     0.728800000000     0.588100000000     0          
C757     C      0.906010000000     0.706940000000     0.628100000000     0          
H758     H      0.941800000000     0.679200000000     0.657400000000     0          
C759     C      0.928600000000     0.725900000000     0.662300000000     0          
O760     O      0.044200000000     0.719340000000     0.695940000000     0          
Zr761    Zr     0.942230000000     0.783870000000     0.822340000000     0          
O762     O      0.915750000000     0.747650000000     0.847740000000     0          
O763     O      0.921650000000     0.820100000000     0.854880000000     0          
C764     C      0.067900000000     0.841450000000     0.656200000000     0          
O765     O      0.956530000000     0.848490000000     0.695010000000     0          
C766     C      0.088900000000     0.860900000000     0.622000000000     0          
C767     C      0.076500000000     0.885230000000     0.632100000000     0          
C768     C      0.116800000000     0.855770000000     0.581800000000     0          
C769     C      0.094900000000     0.902950000000     0.601100000000     0          
H770     H      0.056400000000     0.888900000000     0.659300000000     0          
C771     C      0.135100000000     0.873730000000     0.549200000000     0          
H772     H      0.124200000000     0.839800000000     0.575200000000     0          
C773     C      0.123800000000     0.897510000000     0.558400000000     0          
H774     H      0.088200000000     0.918900000000     0.608500000000     0          
H775     H      0.154800000000     0.869800000000     0.521600000000     0          
N776     N      0.142000000000     0.914980000000     0.522900000000     0          
H777     H      0.159000000000     0.909700000000     0.497500000000     0          
C778     C      0.135400000000     0.939700000000     0.524600000000     0          
O779     O      0.108000000000     0.949380000000     0.557900000000     0          
C780     C      0.157200000000     0.952650000000     0.473800000000     0          
C781     C      0.191100000000     0.945130000000     0.448400000000     0          
C782     C      0.134900000000     0.973100000000     0.463700000000     0          
H783     H      0.204000000000     0.930500000000     0.457100000000     0          
C784     C      0.208300000000     0.960250000000     0.406000000000     0          
H785     H      0.109500000000     0.977500000000     0.482100000000     0          
C786     C      0.154300000000     0.987210000000     0.422300000000     0          
C787     C      0.190800000000     0.980920000000     0.393500000000     0          
H788     H      0.232700000000     0.955100000000     0.386600000000     0          
H789     H      0.141300000000     0.001900000000     0.413900000000     0          
C790     C      0.207800000000     0.997500000000     0.349800000000     0          
C791     C      0.201200000000     0.990720000000     0.294800000000     0          
C792     C      0.226500000000     0.019180000000     0.367500000000     0          
C793     C      0.181000000000     0.969140000000     0.277740000000     0          
N794     N      0.242700000000     0.037060000000     0.333610000000     0          
C795     C      0.235600000000     0.025450000000     0.424000000000     0          
H796     H      0.169800000000     0.957200000000     0.300400000000     0          
C797     C      0.259000000000     0.054340000000     0.366700000000     0          
C798     C      0.253500000000     0.047110000000     0.423300000000     0          
H799     H      0.230000000000     0.016100000000     0.454700000000     0          
C800     C      0.279700000000     0.075340000000     0.349700000000     0          
H801     H      0.261300000000     0.056100000000     0.453900000000     0          
C802     C      0.286300000000     0.082270000000     0.294800000000     0          
C803     C      0.296200000000     0.092400000000     0.394600000000     0          
C804     C      0.306200000000     0.103690000000     0.277760000000     0          
C805     C      0.266900000000     0.106500000000     0.414200000000     0          
C806     C      0.337000000000     0.094000000000     0.404900000000     0          
H807     H      0.317300000000     0.115700000000     0.300300000000     0          
H808     H      0.238600000000     0.104100000000     0.401600000000     0          
C809     C      0.272900000000     0.126000000000     0.454500000000     0          
H810     H      0.358500000000     0.084500000000     0.389000000000     0          
C811     C      0.345100000000     0.113400000000     0.446000000000     0          
C812     C      0.315300000000     0.125800000000     0.473800000000     0          
H813     H      0.251400000000     0.136800000000     0.465300000000     0          
H814     H      0.374200000000     0.117200000000     0.452900000000     0          
C815     C      0.305900000000     0.154200000000     0.505700000000     0          
N816     N      0.350300000000     0.153840000000     0.527100000000     0          
O817     O      0.280200000000     0.172600000000     0.491100000000     0          
C818     C      0.368400000000     0.171530000000     0.563100000000     0          
C819     C      0.354460000000     0.195240000000     0.558600000000     0          
C820     C      0.401100000000     0.165530000000     0.600100000000     0          
H821     H      0.332600000000     0.199300000000     0.533900000000     0          
C822     C      0.373280000000     0.212940000000     0.591100000000     0          
C823     C      0.419910000000     0.183230000000     0.632600000000     0          
H824     H      0.410400000000     0.149700000000     0.603100000000     0          
H825     H      0.364000000000     0.228800000000     0.588100000000     0          
C826     C      0.406010000000     0.206940000000     0.628100000000     0          
H827     H      0.441800000000     0.179200000000     0.657400000000     0          
C828     C      0.428600000000     0.225900000000     0.662300000000     0          
O829     O      0.544200000000     0.780660000000     0.304060000000     0          
Zr830    Zr     0.442230000000     0.716130000000     0.177660000000     0          
O831     O      0.415750000000     0.752350000000     0.152260000000     0          
O832     O      0.421650000000     0.679900000000     0.145120000000     0          
C833     C      0.567900000000     0.658550000000     0.343800000000     0          
O834     O      0.456530000000     0.651510000000     0.304990000000     0          
C835     C      0.588900000000     0.639100000000     0.378000000000     0          
C836     C      0.576500000000     0.614770000000     0.367900000000     0          
C837     C      0.616800000000     0.644230000000     0.418200000000     0          
C838     C      0.594900000000     0.597050000000     0.398900000000     0          
H839     H      0.556400000000     0.611100000000     0.340700000000     0          
C840     C      0.635100000000     0.626270000000     0.450800000000     0          
H841     H      0.624200000000     0.660200000000     0.424800000000     0          
C842     C      0.623800000000     0.602490000000     0.441600000000     0          
H843     H      0.588200000000     0.581100000000     0.391500000000     0          
H844     H      0.654800000000     0.630200000000     0.478400000000     0          
N845     N      0.642000000000     0.585020000000     0.477100000000     0          
H846     H      0.659000000000     0.590300000000     0.502500000000     0          
C847     C      0.635400000000     0.560300000000     0.475400000000     0          
O848     O      0.608000000000     0.550620000000     0.442100000000     0          
C849     C      0.657200000000     0.547350000000     0.526200000000     0          
C850     C      0.691100000000     0.554870000000     0.551600000000     0          
C851     C      0.634900000000     0.526900000000     0.536300000000     0          
H852     H      0.704000000000     0.569500000000     0.542900000000     0          
C853     C      0.708300000000     0.539750000000     0.594000000000     0          
H854     H      0.609500000000     0.522500000000     0.517900000000     0          
C855     C      0.654300000000     0.512790000000     0.577700000000     0          
C856     C      0.690800000000     0.519080000000     0.606500000000     0          
H857     H      0.732700000000     0.544900000000     0.613400000000     0          
H858     H      0.641300000000     0.498100000000     0.586100000000     0          
C859     C      0.707800000000     0.502500000000     0.650200000000     0          
C860     C      0.701200000000     0.509280000000     0.705200000000     0          
C861     C      0.726500000000     0.480820000000     0.632500000000     0          
C862     C      0.681000000000     0.530860000000     0.722260000000     0          
N863     N      0.742700000000     0.462940000000     0.666390000000     0          
C864     C      0.735600000000     0.474550000000     0.576000000000     0          
H865     H      0.669800000000     0.542800000000     0.699600000000     0          
C866     C      0.759000000000     0.445660000000     0.633300000000     0          
C867     C      0.753500000000     0.452890000000     0.576700000000     0          
H868     H      0.730000000000     0.483900000000     0.545300000000     0          
C869     C      0.779700000000     0.424660000000     0.650300000000     0          
H870     H      0.761300000000     0.443900000000     0.546100000000     0          
C871     C      0.786300000000     0.417730000000     0.705200000000     0          
C872     C      0.796200000000     0.407600000000     0.605400000000     0          
C873     C      0.806200000000     0.396310000000     0.722240000000     0          
C874     C      0.766900000000     0.393500000000     0.585800000000     0          
C875     C      0.837000000000     0.406000000000     0.595100000000     0          
H876     H      0.817300000000     0.384300000000     0.699700000000     0          
H877     H      0.738600000000     0.395900000000     0.598400000000     0          
C878     C      0.772900000000     0.374000000000     0.545500000000     0          
H879     H      0.858500000000     0.415500000000     0.611000000000     0          
C880     C      0.845100000000     0.386600000000     0.554000000000     0          
C881     C      0.815300000000     0.374200000000     0.526200000000     0          
H882     H      0.751400000000     0.363200000000     0.534700000000     0          
H883     H      0.874200000000     0.382800000000     0.547100000000     0          
C884     C      0.805900000000     0.345800000000     0.494300000000     0          
N885     N      0.850300000000     0.346160000000     0.472900000000     0          
O886     O      0.780200000000     0.327400000000     0.508900000000     0          
C887     C      0.868400000000     0.328470000000     0.436900000000     0          
C888     C      0.854460000000     0.304760000000     0.441400000000     0          
C889     C      0.901100000000     0.334470000000     0.399900000000     0          
H890     H      0.832600000000     0.300700000000     0.466100000000     0          
C891     C      0.873280000000     0.287060000000     0.408900000000     0          
C892     C      0.919910000000     0.316770000000     0.367400000000     0          
H893     H      0.910400000000     0.350300000000     0.396900000000     0          
H894     H      0.864000000000     0.271200000000     0.411900000000     0          
C895     C      0.906010000000     0.293060000000     0.371900000000     0          
H896     H      0.941800000000     0.320800000000     0.342600000000     0          
C897     C      0.928600000000     0.274100000000     0.337700000000     0          
O898     O      0.044200000000     0.280660000000     0.304060000000     0          
Zr899    Zr     0.942230000000     0.216130000000     0.177660000000     0          
O900     O      0.915750000000     0.252350000000     0.152260000000     0          
O901     O      0.921650000000     0.179900000000     0.145120000000     0          
C902     C      0.067900000000     0.158550000000     0.343800000000     0          
O903     O      0.956530000000     0.151510000000     0.304990000000     0          
C904     C      0.088900000000     0.139100000000     0.378000000000     0          
C905     C      0.076500000000     0.114770000000     0.367900000000     0          
C906     C      0.116800000000     0.144230000000     0.418200000000     0          
C907     C      0.094900000000     0.097050000000     0.398900000000     0          
H908     H      0.056400000000     0.111100000000     0.340700000000     0          
C909     C      0.135100000000     0.126270000000     0.450800000000     0          
H910     H      0.124200000000     0.160200000000     0.424800000000     0          
C911     C      0.123800000000     0.102490000000     0.441600000000     0          
H912     H      0.088200000000     0.081100000000     0.391500000000     0          
H913     H      0.154800000000     0.130200000000     0.478400000000     0          
N914     N      0.142000000000     0.085020000000     0.477100000000     0          
H915     H      0.159000000000     0.090300000000     0.502500000000     0          
C916     C      0.135400000000     0.060300000000     0.475400000000     0          
O917     O      0.108000000000     0.050620000000     0.442100000000     0          
C918     C      0.157200000000     0.047350000000     0.526200000000     0          
C919     C      0.191100000000     0.054870000000     0.551600000000     0          
C920     C      0.134900000000     0.026900000000     0.536300000000     0          
H921     H      0.204000000000     0.069500000000     0.542900000000     0          
C922     C      0.208300000000     0.039750000000     0.594000000000     0          
H923     H      0.109500000000     0.022500000000     0.517900000000     0          
C924     C      0.154300000000     0.012790000000     0.577700000000     0          
C925     C      0.190800000000     0.019080000000     0.606500000000     0          
H926     H      0.232700000000     0.044900000000     0.613400000000     0          
H927     H      0.141300000000     0.998100000000     0.586100000000     0          
C928     C      0.207800000000     0.002500000000     0.650200000000     0          
C929     C      0.201200000000     0.009280000000     0.705200000000     0          
C930     C      0.226500000000     0.980820000000     0.632500000000     0          
C931     C      0.181000000000     0.030860000000     0.722260000000     0          
N932     N      0.242700000000     0.962940000000     0.666390000000     0          
C933     C      0.235600000000     0.974550000000     0.576000000000     0          
H934     H      0.169800000000     0.042800000000     0.699600000000     0          
C935     C      0.259000000000     0.945660000000     0.633300000000     0          
C936     C      0.253500000000     0.952890000000     0.576700000000     0          
H937     H      0.230000000000     0.983900000000     0.545300000000     0          
C938     C      0.279700000000     0.924660000000     0.650300000000     0          
H939     H      0.261300000000     0.943900000000     0.546100000000     0          
C940     C      0.286300000000     0.917730000000     0.705200000000     0          
C941     C      0.296200000000     0.907600000000     0.605400000000     0          
C942     C      0.306200000000     0.896310000000     0.722240000000     0          
C943     C      0.266900000000     0.893500000000     0.585800000000     0          
C944     C      0.337000000000     0.906000000000     0.595100000000     0          
H945     H      0.317300000000     0.884300000000     0.699700000000     0          
H946     H      0.238600000000     0.895900000000     0.598400000000     0          
C947     C      0.272900000000     0.874000000000     0.545500000000     0          
H948     H      0.358500000000     0.915500000000     0.611000000000     0          
C949     C      0.345100000000     0.886600000000     0.554000000000     0          
C950     C      0.315300000000     0.874200000000     0.526200000000     0          
H951     H      0.251400000000     0.863200000000     0.534700000000     0          
H952     H      0.374200000000     0.882800000000     0.547100000000     0          
C953     C      0.305900000000     0.845800000000     0.494300000000     0          
N954     N      0.350300000000     0.846160000000     0.472900000000     0          
O955     O      0.280200000000     0.827400000000     0.508900000000     0          
C956     C      0.368400000000     0.828470000000     0.436900000000     0          
C957     C      0.354460000000     0.804760000000     0.441400000000     0          
C958     C      0.401100000000     0.834470000000     0.399900000000     0          
H959     H      0.332600000000     0.800700000000     0.466100000000     0          
C960     C      0.373280000000     0.787060000000     0.408900000000     0          
C961     C      0.419910000000     0.816770000000     0.367400000000     0          
H962     H      0.410400000000     0.850300000000     0.396900000000     0          
H963     H      0.364000000000     0.771200000000     0.411900000000     0          
C964     C      0.406010000000     0.793060000000     0.371900000000     0          
H965     H      0.441800000000     0.820800000000     0.342600000000     0          
C966     C      0.428600000000     0.774100000000     0.337700000000     0          
O967     O      0.455800000000     0.219340000000     0.804060000000     0          
Zr968    Zr     0.557770000000     0.283870000000     0.677660000000     0          
O969     O      0.584250000000     0.247650000000     0.652260000000     0          
O970     O      0.578350000000     0.320100000000     0.645120000000     0          
C971     C      0.432100000000     0.341450000000     0.843800000000     0          
O972     O      0.543470000000     0.348490000000     0.804990000000     0          
C973     C      0.411100000000     0.360900000000     0.878000000000     0          
C974     C      0.423500000000     0.385230000000     0.867900000000     0          
C975     C      0.383200000000     0.355770000000     0.918200000000     0          
C976     C      0.405100000000     0.402950000000     0.898900000000     0          
H977     H      0.443600000000     0.388900000000     0.840700000000     0          
C978     C      0.364900000000     0.373730000000     0.950800000000     0          
H979     H      0.375800000000     0.339800000000     0.924800000000     0          
C980     C      0.376200000000     0.397510000000     0.941600000000     0          
H981     H      0.411800000000     0.418900000000     0.891500000000     0          
H982     H      0.345200000000     0.369800000000     0.978400000000     0          
N983     N      0.358000000000     0.414980000000     0.977100000000     0          
H984     H      0.341000000000     0.409700000000     0.002500000000     0          
C985     C      0.364600000000     0.439700000000     0.975400000000     0          
O986     O      0.392000000000     0.449380000000     0.942100000000     0          
C987     C      0.342800000000     0.452650000000     0.026200000000     0          
C988     C      0.308900000000     0.445130000000     0.051600000000     0          
C989     C      0.365100000000     0.473100000000     0.036300000000     0          
H990     H      0.296000000000     0.430500000000     0.042900000000     0          
C991     C      0.291700000000     0.460250000000     0.094000000000     0          
H992     H      0.390500000000     0.477500000000     0.017900000000     0          
C993     C      0.345700000000     0.487210000000     0.077700000000     0          
C994     C      0.309200000000     0.480920000000     0.106500000000     0          
H995     H      0.267300000000     0.455100000000     0.113400000000     0          
H996     H      0.358700000000     0.501900000000     0.086100000000     0          
C997     C      0.292200000000     0.497500000000     0.150200000000     0          
C998     C      0.298800000000     0.490720000000     0.205200000000     0          
C999     C      0.273500000000     0.519180000000     0.132500000000     0          
C1000    C      0.319000000000     0.469140000000     0.222260000000     0          
N1001    N      0.257300000000     0.537060000000     0.166390000000     0          
C1002    C      0.264400000000     0.525450000000     0.076000000000     0          
H1003    H      0.330200000000     0.457200000000     0.199600000000     0          
C1004    C      0.241000000000     0.554340000000     0.133300000000     0          
C1005    C      0.246500000000     0.547110000000     0.076700000000     0          
H1006    H      0.270000000000     0.516100000000     0.045300000000     0          
C1007    C      0.220300000000     0.575340000000     0.150300000000     0          
H1008    H      0.238700000000     0.556100000000     0.046100000000     0          
C1009    C      0.213700000000     0.582270000000     0.205200000000     0          
C1010    C      0.203800000000     0.592400000000     0.105400000000     0          
C1011    C      0.193800000000     0.603690000000     0.222240000000     0          
C1012    C      0.233100000000     0.606500000000     0.085800000000     0          
C1013    C      0.163000000000     0.594000000000     0.095100000000     0          
H1014    H      0.182700000000     0.615700000000     0.199700000000     0          
H1015    H      0.261400000000     0.604100000000     0.098400000000     0          
C1016    C      0.227100000000     0.626000000000     0.045500000000     0          
H1017    H      0.141500000000     0.584500000000     0.111000000000     0          
C1018    C      0.154900000000     0.613400000000     0.054000000000     0          
C1019    C      0.184700000000     0.625800000000     0.026200000000     0          
H1020    H      0.248600000000     0.636800000000     0.034700000000     0          
H1021    H      0.125800000000     0.617200000000     0.047100000000     0          
C1022    C      0.194100000000     0.654200000000     0.994300000000     0          
N1023    N      0.149700000000     0.653840000000     0.972900000000     0          
O1024    O      0.219800000000     0.672600000000     0.008900000000     0          
C1025    C      0.131600000000     0.671530000000     0.936900000000     0          
C1026    C      0.145540000000     0.695240000000     0.941400000000     0          
C1027    C      0.098900000000     0.665530000000     0.899900000000     0          
H1028    H      0.167400000000     0.699300000000     0.966100000000     0          
C1029    C      0.126720000000     0.712940000000     0.908900000000     0          
C1030    C      0.080090000000     0.683230000000     0.867400000000     0          
H1031    H      0.089600000000     0.649700000000     0.896900000000     0          
H1032    H      0.136000000000     0.728800000000     0.911900000000     0          
C1033    C      0.093990000000     0.706940000000     0.871900000000     0          
H1034    H      0.058200000000     0.679200000000     0.842600000000     0          
C1035    C      0.071400000000     0.725900000000     0.837700000000     0          
O1036    O      0.955800000000     0.719340000000     0.804060000000     0          
Zr1037   Zr     0.057770000000     0.783870000000     0.677660000000     0          
O1038    O      0.084250000000     0.747650000000     0.652260000000     0          
O1039    O      0.078350000000     0.820100000000     0.645120000000     0          
C1040    C      0.932100000000     0.841450000000     0.843800000000     0          
O1041    O      0.043470000000     0.848490000000     0.804990000000     0          
C1042    C      0.911100000000     0.860900000000     0.878000000000     0          
C1043    C      0.923500000000     0.885230000000     0.867900000000     0          
C1044    C      0.883200000000     0.855770000000     0.918200000000     0          
C1045    C      0.905100000000     0.902950000000     0.898900000000     0          
H1046    H      0.943600000000     0.888900000000     0.840700000000     0          
C1047    C      0.864900000000     0.873730000000     0.950800000000     0          
H1048    H      0.875800000000     0.839800000000     0.924800000000     0          
C1049    C      0.876200000000     0.897510000000     0.941600000000     0          
H1050    H      0.911800000000     0.918900000000     0.891500000000     0          
H1051    H      0.845200000000     0.869800000000     0.978400000000     0          
N1052    N      0.858000000000     0.914980000000     0.977100000000     0          
H1053    H      0.841000000000     0.909700000000     0.002500000000     0          
C1054    C      0.864600000000     0.939700000000     0.975400000000     0          
O1055    O      0.892000000000     0.949380000000     0.942100000000     0          
C1056    C      0.842800000000     0.952650000000     0.026200000000     0          
C1057    C      0.808900000000     0.945130000000     0.051600000000     0          
C1058    C      0.865100000000     0.973100000000     0.036300000000     0          
H1059    H      0.796000000000     0.930500000000     0.042900000000     0          
C1060    C      0.791700000000     0.960250000000     0.094000000000     0          
H1061    H      0.890500000000     0.977500000000     0.017900000000     0          
C1062    C      0.845700000000     0.987210000000     0.077700000000     0          
C1063    C      0.809200000000     0.980920000000     0.106500000000     0          
H1064    H      0.767300000000     0.955100000000     0.113400000000     0          
H1065    H      0.858700000000     0.001900000000     0.086100000000     0          
C1066    C      0.792200000000     0.997500000000     0.150200000000     0          
C1067    C      0.798800000000     0.990720000000     0.205200000000     0          
C1068    C      0.773500000000     0.019180000000     0.132500000000     0          
C1069    C      0.819000000000     0.969140000000     0.222260000000     0          
N1070    N      0.757300000000     0.037060000000     0.166390000000     0          
C1071    C      0.764400000000     0.025450000000     0.076000000000     0          
H1072    H      0.830200000000     0.957200000000     0.199600000000     0          
C1073    C      0.741000000000     0.054340000000     0.133300000000     0          
C1074    C      0.746500000000     0.047110000000     0.076700000000     0          
H1075    H      0.770000000000     0.016100000000     0.045300000000     0          
C1076    C      0.720300000000     0.075340000000     0.150300000000     0          
H1077    H      0.738700000000     0.056100000000     0.046100000000     0          
C1078    C      0.713700000000     0.082270000000     0.205200000000     0          
C1079    C      0.703800000000     0.092400000000     0.105400000000     0          
C1080    C      0.693800000000     0.103690000000     0.222240000000     0          
C1081    C      0.733100000000     0.106500000000     0.085800000000     0          
C1082    C      0.663000000000     0.094000000000     0.095100000000     0          
H1083    H      0.682700000000     0.115700000000     0.199700000000     0          
H1084    H      0.761400000000     0.104100000000     0.098400000000     0          
C1085    C      0.727100000000     0.126000000000     0.045500000000     0          
H1086    H      0.641500000000     0.084500000000     0.111000000000     0          
C1087    C      0.654900000000     0.113400000000     0.054000000000     0          
C1088    C      0.684700000000     0.125800000000     0.026200000000     0          
H1089    H      0.748600000000     0.136800000000     0.034700000000     0          
H1090    H      0.625800000000     0.117200000000     0.047100000000     0          
C1091    C      0.694100000000     0.154200000000     0.994300000000     0          
N1092    N      0.649700000000     0.153840000000     0.972900000000     0          
O1093    O      0.719800000000     0.172600000000     0.008900000000     0          
C1094    C      0.631600000000     0.171530000000     0.936900000000     0          
C1095    C      0.645540000000     0.195240000000     0.941400000000     0          
C1096    C      0.598900000000     0.165530000000     0.899900000000     0          
H1097    H      0.667400000000     0.199300000000     0.966100000000     0          
C1098    C      0.626720000000     0.212940000000     0.908900000000     0          
C1099    C      0.580090000000     0.183230000000     0.867400000000     0          
H1100    H      0.589600000000     0.149700000000     0.896900000000     0          
H1101    H      0.636000000000     0.228800000000     0.911900000000     0          
C1102    C      0.593990000000     0.206940000000     0.871900000000     0          
H1103    H      0.558200000000     0.179200000000     0.842600000000     0          
C1104    C      0.571400000000     0.225900000000     0.837700000000     0          
Zr1105   Zr     0.500000000000     0.239550000000     0.750000000000     0          
Zr1106   Zr     0.500000000000     0.328100000000     0.750000000000     0          
Zr1107   Zr     0.000000000000     0.739550000000     0.750000000000     0          
Zr1108   Zr     0.000000000000     0.828100000000     0.750000000000     0          
Zr1109   Zr     0.500000000000     0.760450000000     0.250000000000     0          
Zr1110   Zr     0.500000000000     0.671900000000     0.250000000000     0          
Zr1111   Zr     0.000000000000     0.260450000000     0.250000000000     0          
Zr1112   Zr     0.000000000000     0.171900000000     0.250000000000     0          
O1113    O      0.500000000000     0.260340000000     0.667900000000     0          
O1114    O      0.500000000000     0.303120000000     0.686250000000     0          
O1115    O      0.000000000000     0.760340000000     0.667900000000     0          
O1116    O      0.000000000000     0.803120000000     0.686250000000     0          
O1117    O      0.500000000000     0.739660000000     0.167900000000     0          
O1118    O      0.500000000000     0.696880000000     0.186250000000     0          
O1119    O      0.000000000000     0.239660000000     0.167900000000     0          
O1120    O      0.000000000000     0.196880000000     0.186250000000     0          
O1121    O      0.500000000000     0.260340000000     0.832100000000     0          
O1122    O      0.500000000000     0.303120000000     0.813750000000     0          
O1123    O      0.000000000000     0.760340000000     0.832100000000     0          
O1124    O      0.000000000000     0.803120000000     0.813750000000     0          
O1125    O      0.500000000000     0.739660000000     0.332100000000     0          
O1126    O      0.500000000000     0.696880000000     0.313750000000     0          
O1127    O      0.000000000000     0.239660000000     0.332100000000     0          
O1128    O      0.000000000000     0.196880000000     0.313750000000     0          
O1129    O      0.550810000000     0.264360000000     0.750000000000     0          
O1130    O      0.434880000000     0.307170000000     0.750000000000     0          
O1131    O      0.050810000000     0.764360000000     0.750000000000     0          
O1132    O      0.934880000000     0.807170000000     0.750000000000     0          
O1133    O      0.449190000000     0.735640000000     0.250000000000     0          
O1134    O      0.565120000000     0.692830000000     0.250000000000     0          
O1135    O      0.949190000000     0.235640000000     0.250000000000     0          
O1136    O      0.065120000000     0.192830000000     0.250000000000     0          
O1137    O      0.449190000000     0.264360000000     0.750000000000     0          
O1138    O      0.565120000000     0.307170000000     0.750000000000     0          
O1139    O      0.949190000000     0.764360000000     0.750000000000     0          
O1140    O      0.065120000000     0.807170000000     0.750000000000     0          
O1141    O      0.550810000000     0.735640000000     0.250000000000     0          
O1142    O      0.434880000000     0.692830000000     0.250000000000     0          
O1143    O      0.050810000000     0.235640000000     0.250000000000     0          
O1144    O      0.934880000000     0.192830000000     0.250000000000     0          
N1145    N      0.713800000000     0.503330000000     0.250000000000     0          
H1146    H      0.727400000000     0.516900000000     0.250000000000     0          
N1147    N      0.774000000000     0.569710000000     0.250000000000     0          
H1148    H      0.760600000000     0.556100000000     0.250000000000     0          
N1149    N      0.213800000000     0.003330000000     0.250000000000     0          
H1150    H      0.227400000000     0.016900000000     0.250000000000     0          
N1151    N      0.274000000000     0.069710000000     0.250000000000     0          
H1152    H      0.260600000000     0.056100000000     0.250000000000     0          
N1153    N      0.286200000000     0.496670000000     0.750000000000     0          
H1154    H      0.272600000000     0.483100000000     0.750000000000     0          
N1155    N      0.226000000000     0.430290000000     0.750000000000     0          
H1156    H      0.239400000000     0.443900000000     0.750000000000     0          
N1157    N      0.786200000000     0.996670000000     0.750000000000     0          
H1158    H      0.772600000000     0.983100000000     0.750000000000     0          
N1159    N      0.726000000000     0.930290000000     0.750000000000     0          
H1160    H      0.739400000000     0.943900000000     0.750000000000     0          
N1161    N      0.286200000000     0.503330000000     0.250000000000     0          
H1162    H      0.272600000000     0.516900000000     0.250000000000     0          
N1163    N      0.226000000000     0.569710000000     0.250000000000     0          
H1164    H      0.239400000000     0.556100000000     0.250000000000     0          
N1165    N      0.786200000000     0.003330000000     0.250000000000     0          
H1166    H      0.772600000000     0.016900000000     0.250000000000     0          
N1167    N      0.726000000000     0.069710000000     0.250000000000     0          
H1168    H      0.739400000000     0.056100000000     0.250000000000     0          
N1169    N      0.713800000000     0.496670000000     0.750000000000     0          
H1170    H      0.727400000000     0.483100000000     0.750000000000     0          
N1171    N      0.774000000000     0.430290000000     0.750000000000     0          
H1172    H      0.760600000000     0.443900000000     0.750000000000     0          
N1173    N      0.213800000000     0.996670000000     0.750000000000     0          
H1174    H      0.227400000000     0.983100000000     0.750000000000     0          
N1175    N      0.274000000000     0.930290000000     0.750000000000     0          
H1176    H      0.260600000000     0.943900000000     0.750000000000     0          


