data_QAJJOD01

_audit_creation_method RASPA-1.0
_audit_creation_date 2020-12-14
_audit_author_name 'Rocio Bueno-Perez'

_cell_length_a    26.869
_cell_length_b    26.869
_cell_length_c    26.869
_cell_angle_alpha 90
_cell_angle_beta  90
_cell_angle_gamma 90
_cell_volume      19397.9

_symmetry_cell_setting          triclinic
_symmetry_space_group_name_Hall 'P 1'
_symmetry_space_group_name_H-M  'P 1'
_symmetry_Int_Tables_number     1

_symmetry_equiv_pos_as_xyz 'x,y,z'

loop_
_atom_site_label
_atom_site_type_symbol
_atom_site_fract_x
_atom_site_fract_y
_atom_site_fract_z
_atom_site_charge
C1       C      0.682160000000     0.241370000000     0.486140000000     0          
C2       C      0.644990000000     0.205280000000     0.486230000000     0          
C3       C      0.592100000000     0.226400000000     0.465600000000     0          
H4       H      0.670780000000     0.278120000000     0.475750000000     0          
C5       C      0.317840000000     0.758630000000     0.486140000000     0          
C6       C      0.355010000000     0.794720000000     0.486230000000     0          
H7       H      0.330810000000     0.722780000000     0.474410000000     0          
C8       C      0.317840000000     0.258630000000     0.986140000000     0          
C9       C      0.355010000000     0.294720000000     0.986230000000     0          
C10      C      0.407900000000     0.273600000000     0.965600000000     0          
H11      H      0.329190000000     0.221850000000     0.975790000000     0          
C12      C      0.817840000000     0.758630000000     0.986140000000     0          
C13      C      0.855010000000     0.794720000000     0.986230000000     0          
C14      C      0.907900000000     0.773600000000     0.965600000000     0          
H15      H      0.829180000000     0.721840000000     0.975830000000     0          
C16      C      0.317840000000     0.241370000000     0.513860000000     0          
C17      C      0.355010000000     0.205280000000     0.513770000000     0          
H18      H      0.330990000000     0.277240000000     0.525310000000     0          
C19      C      0.682160000000     0.758630000000     0.513860000000     0          
C20      C      0.644990000000     0.794720000000     0.513770000000     0          
C21      C      0.592100000000     0.773600000000     0.534400000000     0          
H22      H      0.670920000000     0.722170000000     0.525200000000     0          
C23      C      0.682160000000     0.258630000000     0.013860000000     0          
C24      C      0.644990000000     0.294720000000     0.013770000000     0          
C25      C      0.592100000000     0.273600000000     0.034400000000     0          
H26      H      0.670900000000     0.222170000000     0.025160000000     0          
C27      C      0.182160000000     0.758630000000     0.013860000000     0          
C28      C      0.144990000000     0.794720000000     0.013770000000     0          
C29      C      0.092100000000     0.773600000000     0.034400000000     0          
H30      H      0.170910000000     0.722160000000     0.025160000000     0          
C31      C      0.486140000000     0.182160000000     0.741370000000     0          
C32      C      0.486230000000     0.144990000000     0.705280000000     0          
C33      C      0.465600000000     0.092100000000     0.726400000000     0          
H34      H      0.474930000000     0.170390000000     0.777610000000     0          
C35      C      0.986140000000     0.682160000000     0.741370000000     0          
C36      C      0.986230000000     0.644990000000     0.705280000000     0          
H37      H      0.979880000000     0.668080000000     0.778220000000     0          
C38      C      0.986140000000     0.182160000000     0.241370000000     0          
C39      C      0.986230000000     0.144990000000     0.205280000000     0          
H40      H      0.974530000000     0.169200000000     0.277270000000     0          
C41      C      0.486140000000     0.817840000000     0.258630000000     0          
C42      C      0.486230000000     0.855010000000     0.294720000000     0          
H43      H      0.474640000000     0.830830000000     0.222710000000     0          
C44      C      0.513860000000     0.317840000000     0.241370000000     0          
C45      C      0.513770000000     0.355010000000     0.205280000000     0          
H46      H      0.525320000000     0.330990000000     0.277240000000     0          
C47      C      0.513860000000     0.817840000000     0.741370000000     0          
C48      C      0.513770000000     0.855010000000     0.705280000000     0          
C49      C      0.534400000000     0.907900000000     0.726400000000     0          
H50      H      0.525170000000     0.829100000000     0.777830000000     0          
C51      C      0.013860000000     0.317840000000     0.741370000000     0          
C52      C      0.013770000000     0.355010000000     0.705280000000     0          
H53      H      0.025350000000     0.330800000000     0.777320000000     0          
C54      C      0.013860000000     0.817840000000     0.241370000000     0          
C55      C      0.013770000000     0.855010000000     0.205280000000     0          
C56      C      0.034400000000     0.907900000000     0.226400000000     0          
H57      H      0.025120000000     0.829140000000     0.277840000000     0          
C58      C      0.241370000000     0.486140000000     0.682160000000     0          
C59      C      0.205280000000     0.486230000000     0.644990000000     0          
C60      C      0.226400000000     0.465600000000     0.592100000000     0          
H61      H      0.278120000000     0.475740000000     0.670800000000     0          
C62      C      0.741370000000     0.486140000000     0.182160000000     0          
C63      C      0.705280000000     0.486230000000     0.144990000000     0          
H64      H      0.777310000000     0.474640000000     0.169200000000     0          
C65      C      0.741370000000     0.986140000000     0.682160000000     0          
C66      C      0.705280000000     0.986230000000     0.644990000000     0          
H67      H      0.777260000000     0.974580000000     0.669080000000     0          
C68      C      0.258630000000     0.986140000000     0.317840000000     0          
C69      C      0.294720000000     0.986230000000     0.355010000000     0          
H70      H      0.222900000000     0.973100000000     0.330070000000     0          
C71      C      0.241370000000     0.513860000000     0.317840000000     0          
C72      C      0.205280000000     0.513770000000     0.355010000000     0          
C73      C      0.226400000000     0.534400000000     0.407900000000     0          
H74      H      0.277660000000     0.526050000000     0.328380000000     0          
C75      C      0.741370000000     0.513860000000     0.817840000000     0          
C76      C      0.705280000000     0.513770000000     0.855010000000     0          
H77      H      0.777290000000     0.525400000000     0.830810000000     0          
C78      C      0.741370000000     0.013860000000     0.317840000000     0          
C79      C      0.705280000000     0.013770000000     0.355010000000     0          
C80      C      0.726400000000     0.034400000000     0.407900000000     0          
H81      H      0.777840000000     0.025150000000     0.329100000000     0          
C82      C      0.258630000000     0.013860000000     0.682160000000     0          
C83      C      0.294720000000     0.013770000000     0.644990000000     0          
C84      C      0.273600000000     0.034400000000     0.592100000000     0          
H85      H      0.222180000000     0.025210000000     0.670920000000     0          
C86      C      0.741370000000     0.182160000000     0.513860000000     0          
C87      C      0.705280000000     0.144990000000     0.513770000000     0          
H88      H      0.777250000000     0.169000000000     0.525260000000     0          
C89      C      0.758630000000     0.817840000000     0.013860000000     0          
C90      C      0.794720000000     0.855010000000     0.013770000000     0          
H91      H      0.722320000000     0.831180000000     0.023640000000     0          
C92      C      0.258630000000     0.317840000000     0.013860000000     0          
C93      C      0.294720000000     0.355010000000     0.013770000000     0          
H94      H      0.222350000000     0.331340000000     0.023500000000     0          
C95      C      0.258630000000     0.817840000000     0.513860000000     0          
C96      C      0.294720000000     0.855010000000     0.513770000000     0          
C97      C      0.273600000000     0.907900000000     0.534400000000     0          
H98      H      0.222270000000     0.828990000000     0.525590000000     0          
C99      C      0.241370000000     0.817840000000     0.986140000000     0          
C100     C      0.205280000000     0.855010000000     0.986230000000     0          
H101     H      0.278100000000     0.831740000000     0.978910000000     0          
C102     C      0.741370000000     0.317840000000     0.986140000000     0          
C103     C      0.705280000000     0.355010000000     0.986230000000     0          
H104     H      0.777300000000     0.330800000000     0.974610000000     0          
C105     C      0.741370000000     0.817840000000     0.486140000000     0          
C106     C      0.705280000000     0.855010000000     0.486230000000     0          
H107     H      0.777290000000     0.830820000000     0.474620000000     0          
C108     C      0.258630000000     0.182160000000     0.486140000000     0          
C109     C      0.294720000000     0.144990000000     0.486230000000     0          
C110     C      0.273600000000     0.092100000000     0.465600000000     0          
H111     H      0.222180000000     0.170920000000     0.474800000000     0          
C112     C      0.682160000000     0.486140000000     0.758630000000     0          
C113     C      0.644990000000     0.486230000000     0.794720000000     0          
C114     C      0.592100000000     0.465600000000     0.773600000000     0          
H115     H      0.670800000000     0.475740000000     0.721880000000     0          
C116     C      0.682160000000     0.986140000000     0.258630000000     0          
C117     C      0.644990000000     0.986230000000     0.294720000000     0          
H118     H      0.669120000000     0.974420000000     0.222780000000     0          
C119     C      0.182160000000     0.486140000000     0.258630000000     0          
C120     C      0.144990000000     0.486230000000     0.294720000000     0          
H121     H      0.169190000000     0.474600000000     0.222710000000     0          
C122     C      0.317840000000     0.986140000000     0.741370000000     0          
C123     C      0.355010000000     0.986230000000     0.705280000000     0          
H124     H      0.330810000000     0.974620000000     0.777290000000     0          
C125     C      0.317840000000     0.013860000000     0.258630000000     0          
C126     C      0.355010000000     0.013770000000     0.294720000000     0          
C127     C      0.407900000000     0.034400000000     0.273600000000     0          
C128     C      0.682160000000     0.513860000000     0.241370000000     0          
C129     C      0.644990000000     0.513770000000     0.205280000000     0          
C130     C      0.592100000000     0.534400000000     0.226400000000     0          
H131     H      0.670830000000     0.525090000000     0.277840000000     0          
C132     C      0.682160000000     0.013860000000     0.741370000000     0          
C133     C      0.644990000000     0.013770000000     0.705280000000     0          
C134     C      0.592100000000     0.034400000000     0.726400000000     0          
H135     H      0.670910000000     0.025210000000     0.777820000000     0          
C136     C      0.182160000000     0.513860000000     0.741370000000     0          
C137     C      0.144990000000     0.513770000000     0.705280000000     0          
H138     H      0.169200000000     0.525370000000     0.777310000000     0          
C139     C      0.486140000000     0.758630000000     0.682160000000     0          
C140     C      0.486230000000     0.794720000000     0.644990000000     0          
H141     H      0.474660000000     0.722700000000     0.669160000000     0          
C142     C      0.486140000000     0.258630000000     0.182160000000     0          
C143     C      0.486230000000     0.294720000000     0.144990000000     0          
C144     C      0.465600000000     0.273600000000     0.092100000000     0          
H145     H      0.474380000000     0.222280000000     0.171030000000     0          
C146     C      0.986140000000     0.758630000000     0.182160000000     0          
C147     C      0.986230000000     0.794720000000     0.144990000000     0          
H148     H      0.974630000000     0.722710000000     0.169170000000     0          
C149     C      0.986140000000     0.258630000000     0.682160000000     0          
C150     C      0.986230000000     0.294720000000     0.644990000000     0          
C151     C      0.965600000000     0.273600000000     0.592100000000     0          
H152     H      0.975830000000     0.221860000000     0.670800000000     0          
C153     C      0.513860000000     0.241370000000     0.682160000000     0          
C154     C      0.513770000000     0.205280000000     0.644990000000     0          
C155     C      0.534400000000     0.226400000000     0.592100000000     0          
H156     H      0.525020000000     0.277620000000     0.670360000000     0          
C157     C      0.013860000000     0.241370000000     0.182160000000     0          
C158     C      0.013770000000     0.205280000000     0.144990000000     0          
C159     C      0.034400000000     0.226400000000     0.092100000000     0          
H160     H      0.024120000000     0.278150000000     0.170800000000     0          
C161     C      0.013860000000     0.741370000000     0.682160000000     0          
C162     C      0.013770000000     0.705280000000     0.644990000000     0          
C163     C      0.034400000000     0.726400000000     0.592100000000     0          
H164     H      0.025100000000     0.777840000000     0.670840000000     0          
C165     C      0.513860000000     0.758630000000     0.317840000000     0          
C166     C      0.513770000000     0.794720000000     0.355010000000     0          
C167     C      0.534400000000     0.773600000000     0.407900000000     0          
H168     H      0.525580000000     0.722270000000     0.328990000000     0          
C169     C      0.817840000000     0.258630000000     0.513860000000     0          
C170     C      0.855010000000     0.294720000000     0.513770000000     0          
C171     C      0.907900000000     0.273600000000     0.534400000000     0          
H172     H      0.828500000000     0.222180000000     0.525480000000     0          
C173     C      0.682160000000     0.741370000000     0.013860000000     0          
C174     C      0.644990000000     0.705280000000     0.013770000000     0          
C175     C      0.592100000000     0.726400000000     0.034400000000     0          
H176     H      0.671010000000     0.777740000000     0.025610000000     0          
C177     C      0.182160000000     0.241370000000     0.013860000000     0          
C178     C      0.144990000000     0.205280000000     0.013770000000     0          
C179     C      0.092100000000     0.226400000000     0.034400000000     0          
H180     H      0.171630000000     0.277690000000     0.026010000000     0          
C181     C      0.182160000000     0.741370000000     0.513860000000     0          
C182     C      0.144990000000     0.705280000000     0.513770000000     0          
H183     H      0.168820000000     0.777680000000     0.523640000000     0          
C184     C      0.182160000000     0.258630000000     0.486140000000     0          
C185     C      0.144990000000     0.294720000000     0.486230000000     0          
H186     H      0.169170000000     0.222710000000     0.474640000000     0          
C187     C      0.317840000000     0.741370000000     0.986140000000     0          
C188     C      0.355010000000     0.705280000000     0.986230000000     0          
C189     C      0.407900000000     0.726400000000     0.965600000000     0          
H190     H      0.328760000000     0.777630000000     0.973830000000     0          
C191     C      0.817840000000     0.241370000000     0.986140000000     0          
C192     C      0.855010000000     0.205280000000     0.986230000000     0          
C193     C      0.907900000000     0.226400000000     0.965600000000     0          
H194     H      0.829120000000     0.277790000000     0.974720000000     0          
C195     C      0.817840000000     0.741370000000     0.486140000000     0          
C196     C      0.855010000000     0.705280000000     0.486230000000     0          
C197     C      0.907900000000     0.726400000000     0.465600000000     0          
H198     H      0.829100000000     0.777840000000     0.474850000000     0          
C199     C      0.513860000000     0.317840000000     0.758630000000     0          
C200     C      0.513770000000     0.355010000000     0.794720000000     0          
C201     C      0.534400000000     0.407900000000     0.773600000000     0          
H202     H      0.525490000000     0.328830000000     0.722370000000     0          
C203     C      0.013860000000     0.317840000000     0.258630000000     0          
C204     C      0.013770000000     0.355010000000     0.294720000000     0          
H205     H      0.025590000000     0.330800000000     0.222770000000     0          
C206     C      0.013860000000     0.817840000000     0.758630000000     0          
C207     C      0.013770000000     0.855010000000     0.794720000000     0          
H208     H      0.025360000000     0.830820000000     0.722700000000     0          
C209     C      0.513860000000     0.682160000000     0.241370000000     0          
C210     C      0.513770000000     0.644990000000     0.205280000000     0          
H211     H      0.523640000000     0.668820000000     0.277680000000     0          
C212     C      0.486140000000     0.682160000000     0.758630000000     0          
C213     C      0.486230000000     0.644990000000     0.794720000000     0          
C214     C      0.465600000000     0.592100000000     0.773600000000     0          
H215     H      0.474840000000     0.670900000000     0.722170000000     0          
C216     C      0.486140000000     0.182160000000     0.258630000000     0          
C217     C      0.486230000000     0.144990000000     0.294720000000     0          
H218     H      0.476350000000     0.168820000000     0.222320000000     0          
C219     C      0.986140000000     0.682160000000     0.258630000000     0          
C220     C      0.986230000000     0.644990000000     0.294720000000     0          
C221     C      0.965600000000     0.592100000000     0.273600000000     0          
H222     H      0.974830000000     0.670900000000     0.222170000000     0          
C223     C      0.986140000000     0.182160000000     0.758630000000     0          
C224     C      0.986230000000     0.144990000000     0.794720000000     0          
H225     H      0.974340000000     0.169200000000     0.722800000000     0          
C226     C      0.758630000000     0.513860000000     0.317840000000     0          
C227     C      0.794720000000     0.513770000000     0.355010000000     0          
H228     H      0.722710000000     0.525390000000     0.330800000000     0          
C229     C      0.758630000000     0.013860000000     0.817840000000     0          
C230     C      0.794720000000     0.013770000000     0.855010000000     0          
H231     H      0.722690000000     0.025360000000     0.830800000000     0          
C232     C      0.258630000000     0.513860000000     0.817840000000     0          
C233     C      0.294720000000     0.513770000000     0.855010000000     0          
C234     C      0.273600000000     0.534400000000     0.907900000000     0          
H235     H      0.222170000000     0.525150000000     0.829110000000     0          
C236     C      0.241370000000     0.013860000000     0.182160000000     0          
C237     C      0.205280000000     0.013770000000     0.144990000000     0          
C238     C      0.226400000000     0.034400000000     0.092100000000     0          
H239     H      0.277660000000     0.025160000000     0.170550000000     0          
C240     C      0.758630000000     0.486140000000     0.682160000000     0          
C241     C      0.794720000000     0.486230000000     0.644990000000     0          
H242     H      0.722780000000     0.474410000000     0.669190000000     0          
C243     C      0.758630000000     0.986140000000     0.182160000000     0          
C244     C      0.794720000000     0.986230000000     0.144990000000     0          
C245     C      0.773600000000     0.965600000000     0.092100000000     0          
H246     H      0.722130000000     0.974950000000     0.170850000000     0          
C247     C      0.258630000000     0.486140000000     0.182160000000     0          
C248     C      0.294720000000     0.486230000000     0.144990000000     0          
C249     C      0.273600000000     0.465600000000     0.092100000000     0          
H250     H      0.222160000000     0.474910000000     0.170830000000     0          
C251     C      0.241370000000     0.986140000000     0.817840000000     0          
C252     C      0.205280000000     0.986230000000     0.855010000000     0          
C253     C      0.226400000000     0.965600000000     0.907900000000     0          
H254     H      0.277840000000     0.974890000000     0.829150000000     0          
C255     C      0.758630000000     0.317840000000     0.486140000000     0          
C256     C      0.794720000000     0.355010000000     0.486230000000     0          
H257     H      0.722780000000     0.330810000000     0.474410000000     0          
C258     C      0.241370000000     0.682160000000     0.486140000000     0          
C259     C      0.205280000000     0.644990000000     0.486230000000     0          
C260     C      0.226400000000     0.592100000000     0.465600000000     0          
H261     H      0.278120000000     0.670800000000     0.475750000000     0          
C262     C      0.241370000000     0.182160000000     0.986140000000     0          
C263     C      0.205280000000     0.144990000000     0.986230000000     0          
H264     H      0.277140000000     0.169120000000     0.974190000000     0          
C265     C      0.741370000000     0.682160000000     0.986140000000     0          
C266     C      0.705280000000     0.644990000000     0.986230000000     0          
H267     H      0.777110000000     0.669140000000     0.974080000000     0          
C268     C      0.758630000000     0.682160000000     0.513860000000     0          
C269     C      0.794720000000     0.644990000000     0.513770000000     0          
H270     H      0.722710000000     0.669170000000     0.525370000000     0          
C271     C      0.758630000000     0.182160000000     0.013860000000     0          
C272     C      0.794720000000     0.144990000000     0.013770000000     0          
H273     H      0.722710000000     0.169180000000     0.025380000000     0          
C274     C      0.258630000000     0.682160000000     0.013860000000     0          
C275     C      0.294720000000     0.644990000000     0.013770000000     0          
H276     H      0.222700000000     0.669160000000     0.025350000000     0          
C277     C      0.241370000000     0.317840000000     0.513860000000     0          
C278     C      0.205280000000     0.355010000000     0.513770000000     0          
C279     C      0.226400000000     0.407900000000     0.534400000000     0          
H280     H      0.277840000000     0.328500000000     0.525400000000     0          
C281     C      0.317840000000     0.513860000000     0.241370000000     0          
C282     C      0.355010000000     0.513770000000     0.205280000000     0          
H283     H      0.330980000000     0.525150000000     0.277300000000     0          
C284     C      0.817840000000     0.513860000000     0.741370000000     0          
C285     C      0.855010000000     0.513770000000     0.705280000000     0          
C286     C      0.907900000000     0.534400000000     0.726400000000     0          
H287     H      0.829150000000     0.525110000000     0.777840000000     0          
C288     C      0.817840000000     0.013860000000     0.241370000000     0          
C289     C      0.855010000000     0.013770000000     0.205280000000     0          
H290     H      0.830820000000     0.025390000000     0.277290000000     0          
C291     C      0.182160000000     0.013860000000     0.758630000000     0          
C292     C      0.144990000000     0.013770000000     0.794720000000     0          
H293     H      0.169170000000     0.025360000000     0.722710000000     0          
C294     C      0.182160000000     0.986140000000     0.241370000000     0          
C295     C      0.144990000000     0.986230000000     0.205280000000     0          
C296     C      0.317840000000     0.486140000000     0.758630000000     0          
C297     C      0.355010000000     0.486230000000     0.794720000000     0          
H298     H      0.330830000000     0.474440000000     0.722770000000     0          
C299     C      0.817840000000     0.486140000000     0.258630000000     0          
C300     C      0.855010000000     0.486230000000     0.294720000000     0          
C301     C      0.907900000000     0.465600000000     0.273600000000     0          
H302     H      0.829090000000     0.474800000000     0.222180000000     0          
C303     C      0.817840000000     0.986140000000     0.758630000000     0          
C304     C      0.855010000000     0.986230000000     0.794720000000     0          
C305     C      0.907900000000     0.965600000000     0.773600000000     0          
H306     H      0.829090000000     0.974760000000     0.722180000000     0          
C307     C      0.513860000000     0.241370000000     0.317840000000     0          
C308     C      0.513770000000     0.205280000000     0.355010000000     0          
C309     C      0.534400000000     0.226400000000     0.407900000000     0          
H310     H      0.525380000000     0.277840000000     0.328500000000     0          
C311     C      0.513860000000     0.741370000000     0.817840000000     0          
C312     C      0.513770000000     0.705280000000     0.855010000000     0          
H313     H      0.525340000000     0.777300000000     0.830840000000     0          
C314     C      0.013860000000     0.241370000000     0.817840000000     0          
C315     C      0.013770000000     0.205280000000     0.855010000000     0          
C316     C      0.034400000000     0.226400000000     0.907900000000     0          
H317     H      0.025230000000     0.277810000000     0.829080000000     0          
C318     C      0.013860000000     0.741370000000     0.317840000000     0          
C319     C      0.013770000000     0.705280000000     0.355010000000     0          
H320     H      0.025350000000     0.777300000000     0.330820000000     0          
C321     C      0.486140000000     0.258630000000     0.817840000000     0          
C322     C      0.486230000000     0.294720000000     0.855010000000     0          
C323     C      0.465600000000     0.273600000000     0.907900000000     0          
H324     H      0.474530000000     0.222360000000     0.828840000000     0          
C325     C      0.986140000000     0.758630000000     0.817840000000     0          
C326     C      0.986230000000     0.794720000000     0.855010000000     0          
C327     C      0.965600000000     0.773600000000     0.907900000000     0          
H328     H      0.971560000000     0.722940000000     0.827620000000     0          
C329     C      0.986140000000     0.258630000000     0.317840000000     0          
C330     C      0.986230000000     0.294720000000     0.355010000000     0          
C331     C      0.965600000000     0.273600000000     0.407900000000     0          
H332     H      0.974840000000     0.222170000000     0.329100000000     0          
C333     C      0.486140000000     0.741370000000     0.182160000000     0          
C334     C      0.486230000000     0.705280000000     0.144990000000     0          
C335     C      0.465600000000     0.726400000000     0.092100000000     0          
H336     H      0.474790000000     0.777820000000     0.170920000000     0          
Zr337    Zr     0.500000000000     0.092040000000     0.500000000000     0          
Zr338    Zr     0.500000000000     0.592040000000     0.000000000000     0          
Zr339    Zr     0.000000000000     0.092040000000     0.000000000000     0          
Zr340    Zr     0.000000000000     0.592040000000     0.500000000000     0          
Zr341    Zr     0.500000000000     0.907960000000     0.500000000000     0          
Zr342    Zr     0.500000000000     0.407960000000     0.000000000000     0          
Zr343    Zr     0.000000000000     0.907960000000     0.000000000000     0          
Zr344    Zr     0.000000000000     0.407960000000     0.500000000000     0          
Zr345    Zr     0.500000000000     0.500000000000     0.092040000000     0          
Zr346    Zr     0.500000000000     0.000000000000     0.592040000000     0          
Zr347    Zr     0.000000000000     0.500000000000     0.592040000000     0          
Zr348    Zr     0.000000000000     0.000000000000     0.092040000000     0          
Zr349    Zr     0.500000000000     0.500000000000     0.907960000000     0          
Zr350    Zr     0.500000000000     0.000000000000     0.407960000000     0          
Zr351    Zr     0.000000000000     0.500000000000     0.407960000000     0          
Zr352    Zr     0.000000000000     0.000000000000     0.907960000000     0          
Zr353    Zr     0.092040000000     0.500000000000     0.500000000000     0          
Zr354    Zr     0.092040000000     0.000000000000     0.000000000000     0          
Zr355    Zr     0.592040000000     0.500000000000     0.000000000000     0          
Zr356    Zr     0.592040000000     0.000000000000     0.500000000000     0          
Zr357    Zr     0.907960000000     0.500000000000     0.500000000000     0          
Zr358    Zr     0.907960000000     0.000000000000     0.000000000000     0          
Zr359    Zr     0.407960000000     0.500000000000     0.000000000000     0          
Zr360    Zr     0.407960000000     0.000000000000     0.500000000000     0          
O361     O      0.572400000000     0.131730000000     0.500000000000     0          
O362     O      0.572400000000     0.631730000000     0.000000000000     0          
O363     O      0.072400000000     0.131730000000     0.000000000000     0          
O364     O      0.072400000000     0.631730000000     0.500000000000     0          
O365     O      0.427600000000     0.868270000000     0.500000000000     0          
O366     O      0.427600000000     0.368270000000     0.000000000000     0          
O367     O      0.927600000000     0.868270000000     0.000000000000     0          
O368     O      0.927600000000     0.368270000000     0.500000000000     0          
O369     O      0.427600000000     0.131730000000     0.500000000000     0          
O370     O      0.427600000000     0.631730000000     0.000000000000     0          
O371     O      0.927600000000     0.131730000000     0.000000000000     0          
O372     O      0.927600000000     0.631730000000     0.500000000000     0          
O373     O      0.572400000000     0.868270000000     0.500000000000     0          
O374     O      0.572400000000     0.368270000000     0.000000000000     0          
O375     O      0.072400000000     0.868270000000     0.000000000000     0          
O376     O      0.072400000000     0.368270000000     0.500000000000     0          
O377     O      0.500000000000     0.572400000000     0.131730000000     0          
O378     O      0.500000000000     0.072400000000     0.631730000000     0          
O379     O      0.000000000000     0.572400000000     0.631730000000     0          
O380     O      0.000000000000     0.072400000000     0.131730000000     0          
O381     O      0.500000000000     0.427600000000     0.868270000000     0          
O382     O      0.500000000000     0.927600000000     0.368270000000     0          
O383     O      0.000000000000     0.427600000000     0.368270000000     0          
O384     O      0.000000000000     0.927600000000     0.868270000000     0          
O385     O      0.500000000000     0.427600000000     0.131730000000     0          
O386     O      0.500000000000     0.927600000000     0.631730000000     0          
O387     O      0.000000000000     0.427600000000     0.631730000000     0          
O388     O      0.000000000000     0.927600000000     0.131730000000     0          
O389     O      0.500000000000     0.572400000000     0.868270000000     0          
O390     O      0.500000000000     0.072400000000     0.368270000000     0          
O391     O      0.000000000000     0.572400000000     0.368270000000     0          
O392     O      0.000000000000     0.072400000000     0.868270000000     0          
O393     O      0.131730000000     0.500000000000     0.572400000000     0          
O394     O      0.131730000000     0.000000000000     0.072400000000     0          
O395     O      0.631730000000     0.500000000000     0.072400000000     0          
O396     O      0.631730000000     0.000000000000     0.572400000000     0          
O397     O      0.868270000000     0.500000000000     0.427600000000     0          
O398     O      0.868270000000     0.000000000000     0.927600000000     0          
O399     O      0.368270000000     0.500000000000     0.927600000000     0          
O400     O      0.368270000000     0.000000000000     0.427600000000     0          
O401     O      0.131730000000     0.500000000000     0.427600000000     0          
O402     O      0.131730000000     0.000000000000     0.927600000000     0          
O403     O      0.631730000000     0.500000000000     0.927600000000     0          
O404     O      0.631730000000     0.000000000000     0.427600000000     0          
O405     O      0.868270000000     0.500000000000     0.572400000000     0          
O406     O      0.868270000000     0.000000000000     0.072400000000     0          
O407     O      0.368270000000     0.500000000000     0.072400000000     0          
O408     O      0.368270000000     0.000000000000     0.572400000000     0          
O409     O      0.131730000000     0.572400000000     0.500000000000     0          
O410     O      0.131730000000     0.072400000000     0.000000000000     0          
O411     O      0.631730000000     0.572400000000     0.000000000000     0          
O412     O      0.631730000000     0.072400000000     0.500000000000     0          
O413     O      0.868270000000     0.427600000000     0.500000000000     0          
O414     O      0.868270000000     0.927600000000     0.000000000000     0          
O415     O      0.368270000000     0.427600000000     0.000000000000     0          
O416     O      0.368270000000     0.927600000000     0.500000000000     0          
O417     O      0.131730000000     0.427600000000     0.500000000000     0          
O418     O      0.131730000000     0.927600000000     0.000000000000     0          
O419     O      0.631730000000     0.427600000000     0.000000000000     0          
O420     O      0.631730000000     0.927600000000     0.500000000000     0          
O421     O      0.868270000000     0.572400000000     0.500000000000     0          
O422     O      0.868270000000     0.072400000000     0.000000000000     0          
O423     O      0.368270000000     0.572400000000     0.000000000000     0          
O424     O      0.368270000000     0.072400000000     0.500000000000     0          
O425     O      0.572400000000     0.500000000000     0.868270000000     0          
O426     O      0.572400000000     0.000000000000     0.368270000000     0          
O427     O      0.072400000000     0.500000000000     0.368270000000     0          
O428     O      0.072400000000     0.000000000000     0.868270000000     0          
O429     O      0.427600000000     0.500000000000     0.131730000000     0          
O430     O      0.427600000000     0.000000000000     0.631730000000     0          
O431     O      0.927600000000     0.500000000000     0.631730000000     0          
O432     O      0.927600000000     0.000000000000     0.131730000000     0          
O433     O      0.427600000000     0.500000000000     0.868270000000     0          
O434     O      0.427600000000     0.000000000000     0.368270000000     0          
O435     O      0.927600000000     0.500000000000     0.368270000000     0          
O436     O      0.927600000000     0.000000000000     0.868270000000     0          
O437     O      0.572400000000     0.500000000000     0.131730000000     0          
O438     O      0.572400000000     0.000000000000     0.631730000000     0          
O439     O      0.072400000000     0.500000000000     0.631730000000     0          
O440     O      0.072400000000     0.000000000000     0.131730000000     0          
O441     O      0.500000000000     0.131730000000     0.427600000000     0          
O442     O      0.500000000000     0.631730000000     0.927600000000     0          
O443     O      0.000000000000     0.131730000000     0.927600000000     0          
O444     O      0.000000000000     0.631730000000     0.427600000000     0          
O445     O      0.500000000000     0.868270000000     0.572400000000     0          
O446     O      0.500000000000     0.368270000000     0.072400000000     0          
O447     O      0.000000000000     0.868270000000     0.072400000000     0          
O448     O      0.000000000000     0.368270000000     0.572400000000     0          
O449     O      0.500000000000     0.131730000000     0.572400000000     0          
O450     O      0.500000000000     0.631730000000     0.072400000000     0          
O451     O      0.000000000000     0.131730000000     0.072400000000     0          
O452     O      0.000000000000     0.631730000000     0.572400000000     0          
O453     O      0.500000000000     0.868270000000     0.427600000000     0          
O454     O      0.500000000000     0.368270000000     0.927600000000     0          
O455     O      0.000000000000     0.868270000000     0.927600000000     0          
O456     O      0.000000000000     0.368270000000     0.427600000000     0          
C457     C      0.617280000000     0.117280000000     0.500000000000     0          
C458     C      0.656720000000     0.156720000000     0.500000000000     0          
C459     C      0.730450000000     0.230450000000     0.500000000000     0          
C460     C      0.617280000000     0.617280000000     0.000000000000     0          
C461     C      0.656720000000     0.656720000000     0.000000000000     0          
C462     C      0.730450000000     0.730450000000     0.000000000000     0          
C463     C      0.382720000000     0.882720000000     0.500000000000     0          
C464     C      0.343280000000     0.843280000000     0.500000000000     0          
C465     C      0.269550000000     0.769550000000     0.500000000000     0          
C466     C      0.382720000000     0.382720000000     0.000000000000     0          
C467     C      0.343280000000     0.343280000000     0.000000000000     0          
C468     C      0.269550000000     0.269550000000     0.000000000000     0          
C469     C      0.382720000000     0.117280000000     0.500000000000     0          
C470     C      0.343280000000     0.156720000000     0.500000000000     0          
C471     C      0.269550000000     0.230450000000     0.500000000000     0          
C472     C      0.382720000000     0.617280000000     0.000000000000     0          
C473     C      0.343280000000     0.656720000000     0.000000000000     0          
C474     C      0.269550000000     0.730450000000     0.000000000000     0          
C475     C      0.617280000000     0.882720000000     0.500000000000     0          
C476     C      0.656720000000     0.843280000000     0.500000000000     0          
C477     C      0.730450000000     0.769550000000     0.500000000000     0          
C478     C      0.617280000000     0.382720000000     0.000000000000     0          
C479     C      0.656720000000     0.343280000000     0.000000000000     0          
C480     C      0.730450000000     0.269550000000     0.000000000000     0          
C481     C      0.500000000000     0.617280000000     0.117280000000     0          
C482     C      0.500000000000     0.656720000000     0.156720000000     0          
C483     C      0.500000000000     0.730450000000     0.230450000000     0          
C484     C      0.000000000000     0.617280000000     0.617280000000     0          
C485     C      0.000000000000     0.656720000000     0.656720000000     0          
C486     C      0.000000000000     0.730450000000     0.730450000000     0          
C487     C      0.500000000000     0.382720000000     0.882720000000     0          
C488     C      0.500000000000     0.343280000000     0.843280000000     0          
C489     C      0.500000000000     0.269550000000     0.769550000000     0          
C490     C      0.000000000000     0.382720000000     0.382720000000     0          
C491     C      0.000000000000     0.343280000000     0.343280000000     0          
C492     C      0.000000000000     0.269550000000     0.269550000000     0          
C493     C      0.500000000000     0.382720000000     0.117280000000     0          
C494     C      0.500000000000     0.343280000000     0.156720000000     0          
C495     C      0.500000000000     0.269550000000     0.230450000000     0          
C496     C      0.000000000000     0.382720000000     0.617280000000     0          
C497     C      0.000000000000     0.343280000000     0.656720000000     0          
C498     C      0.000000000000     0.269550000000     0.730450000000     0          
C499     C      0.500000000000     0.617280000000     0.882720000000     0          
C500     C      0.500000000000     0.656720000000     0.843280000000     0          
C501     C      0.500000000000     0.730450000000     0.769550000000     0          
C502     C      0.000000000000     0.617280000000     0.382720000000     0          
C503     C      0.000000000000     0.656720000000     0.343280000000     0          
C504     C      0.000000000000     0.730450000000     0.269550000000     0          
C505     C      0.117280000000     0.500000000000     0.617280000000     0          
C506     C      0.156720000000     0.500000000000     0.656720000000     0          
C507     C      0.230450000000     0.500000000000     0.730450000000     0          
C508     C      0.117280000000     0.000000000000     0.117280000000     0          
C509     C      0.156720000000     0.000000000000     0.156720000000     0          
C510     C      0.230450000000     0.000000000000     0.230450000000     0          
C511     C      0.882720000000     0.500000000000     0.382720000000     0          
C512     C      0.843280000000     0.500000000000     0.343280000000     0          
C513     C      0.769550000000     0.500000000000     0.269550000000     0          
C514     C      0.882720000000     0.000000000000     0.882720000000     0          
C515     C      0.843280000000     0.000000000000     0.843280000000     0          
C516     C      0.769550000000     0.000000000000     0.769550000000     0          
C517     C      0.117280000000     0.500000000000     0.382720000000     0          
C518     C      0.156720000000     0.500000000000     0.343280000000     0          
C519     C      0.230450000000     0.500000000000     0.269550000000     0          
C520     C      0.117280000000     0.000000000000     0.882720000000     0          
C521     C      0.156720000000     0.000000000000     0.843280000000     0          
C522     C      0.230450000000     0.000000000000     0.769550000000     0          
C523     C      0.882720000000     0.500000000000     0.617280000000     0          
C524     C      0.843280000000     0.500000000000     0.656720000000     0          
C525     C      0.769550000000     0.500000000000     0.730450000000     0          
C526     C      0.882720000000     0.000000000000     0.117280000000     0          
C527     C      0.843280000000     0.000000000000     0.156720000000     0          
C528     C      0.769550000000     0.000000000000     0.230450000000     0          
C529     C      0.117280000000     0.617280000000     0.500000000000     0          
C530     C      0.156720000000     0.656720000000     0.500000000000     0          
C531     C      0.230450000000     0.730450000000     0.500000000000     0          
C532     C      0.117280000000     0.117280000000     0.000000000000     0          
C533     C      0.156720000000     0.156720000000     0.000000000000     0          
C534     C      0.230450000000     0.230450000000     0.000000000000     0          
C535     C      0.882720000000     0.382720000000     0.500000000000     0          
C536     C      0.843280000000     0.343280000000     0.500000000000     0          
C537     C      0.769550000000     0.269550000000     0.500000000000     0          
C538     C      0.882720000000     0.882720000000     0.000000000000     0          
C539     C      0.843280000000     0.843280000000     0.000000000000     0          
C540     C      0.769550000000     0.769550000000     0.000000000000     0          
C541     C      0.117280000000     0.382720000000     0.500000000000     0          
C542     C      0.156720000000     0.343280000000     0.500000000000     0          
C543     C      0.230450000000     0.269550000000     0.500000000000     0          
C544     C      0.117280000000     0.882720000000     0.000000000000     0          
C545     C      0.156720000000     0.843280000000     0.000000000000     0          
C546     C      0.230450000000     0.769550000000     0.000000000000     0          
C547     C      0.882720000000     0.617280000000     0.500000000000     0          
C548     C      0.843280000000     0.656720000000     0.500000000000     0          
C549     C      0.769550000000     0.730450000000     0.500000000000     0          
C550     C      0.882720000000     0.117280000000     0.000000000000     0          
C551     C      0.843280000000     0.156720000000     0.000000000000     0          
C552     C      0.769550000000     0.230450000000     0.000000000000     0          
C553     C      0.617280000000     0.500000000000     0.882720000000     0          
C554     C      0.656720000000     0.500000000000     0.843280000000     0          
C555     C      0.730450000000     0.500000000000     0.769550000000     0          
C556     C      0.617280000000     0.000000000000     0.382720000000     0          
C557     C      0.656720000000     0.000000000000     0.343280000000     0          
C558     C      0.730450000000     0.000000000000     0.269550000000     0          
C559     C      0.382720000000     0.500000000000     0.117280000000     0          
C560     C      0.343280000000     0.500000000000     0.156720000000     0          
C561     C      0.269550000000     0.500000000000     0.230450000000     0          
C562     C      0.382720000000     0.000000000000     0.617280000000     0          
C563     C      0.343280000000     0.000000000000     0.656720000000     0          
C564     C      0.269550000000     0.000000000000     0.730450000000     0          
C565     C      0.382720000000     0.500000000000     0.882720000000     0          
C566     C      0.343280000000     0.500000000000     0.843280000000     0          
C567     C      0.269550000000     0.500000000000     0.769550000000     0          
C568     C      0.382720000000     0.000000000000     0.382720000000     0          
C569     C      0.343280000000     0.000000000000     0.343280000000     0          
C570     C      0.269550000000     0.000000000000     0.269550000000     0          
C571     C      0.617280000000     0.500000000000     0.117280000000     0          
C572     C      0.656720000000     0.500000000000     0.156720000000     0          
C573     C      0.730450000000     0.500000000000     0.230450000000     0          
C574     C      0.617280000000     0.000000000000     0.617280000000     0          
C575     C      0.656720000000     0.000000000000     0.656720000000     0          
C576     C      0.730450000000     0.000000000000     0.730450000000     0          
C577     C      0.500000000000     0.117280000000     0.382720000000     0          
C578     C      0.500000000000     0.156720000000     0.343280000000     0          
C579     C      0.500000000000     0.230450000000     0.269550000000     0          
C580     C      0.000000000000     0.117280000000     0.882720000000     0          
C581     C      0.000000000000     0.156720000000     0.843280000000     0          
C582     C      0.000000000000     0.230450000000     0.769550000000     0          
C583     C      0.500000000000     0.882720000000     0.617280000000     0          
C584     C      0.500000000000     0.843280000000     0.656720000000     0          
C585     C      0.500000000000     0.769550000000     0.730450000000     0          
C586     C      0.000000000000     0.882720000000     0.117280000000     0          
C587     C      0.000000000000     0.843280000000     0.156720000000     0          
C588     C      0.000000000000     0.769550000000     0.230450000000     0          
C589     C      0.500000000000     0.117280000000     0.617280000000     0          
C590     C      0.500000000000     0.156720000000     0.656720000000     0          
C591     C      0.500000000000     0.230450000000     0.730450000000     0          
C592     C      0.000000000000     0.117280000000     0.117280000000     0          
C593     C      0.000000000000     0.156720000000     0.156720000000     0          
C594     C      0.000000000000     0.230450000000     0.230450000000     0          
C595     C      0.500000000000     0.882720000000     0.382720000000     0          
C596     C      0.500000000000     0.843280000000     0.343280000000     0          
C597     C      0.500000000000     0.769550000000     0.269550000000     0          
C598     C      0.000000000000     0.882720000000     0.882720000000     0          
C599     C      0.000000000000     0.843280000000     0.843280000000     0          
C600     C      0.000000000000     0.769550000000     0.769550000000     0          
O601     O      0.448230000000     0.051770000000     0.448230000000     0          
O602     O      0.551770000000     0.948230000000     0.448230000000     0          
O603     O      0.051770000000     0.448230000000     0.448230000000     0          
O604     O      0.551770000000     0.051770000000     0.551770000000     0          
O605     O      0.051770000000     0.051770000000     0.051770000000     0          
O606     O      0.448230000000     0.948230000000     0.551770000000     0          
O607     O      0.448230000000     0.448230000000     0.051770000000     0          
O608     O      0.448230000000     0.551770000000     0.948230000000     0          
O609     O      0.551770000000     0.551770000000     0.051770000000     0          
O610     O      0.551770000000     0.448230000000     0.948230000000     0          
O611     O      0.051770000000     0.948230000000     0.948230000000     0          
O612     O      0.948230000000     0.448230000000     0.551770000000     0          
O613     O      0.948230000000     0.948230000000     0.051770000000     0          
O614     O      0.051770000000     0.551770000000     0.551770000000     0          
O615     O      0.948230000000     0.551770000000     0.448230000000     0          
O616     O      0.948230000000     0.051770000000     0.948230000000     0          
O617     O      0.051770000000     0.448230000000     0.551770000000     0          
O618     O      0.051770000000     0.948230000000     0.051770000000     0          
O619     O      0.948230000000     0.551770000000     0.551770000000     0          
O620     O      0.948230000000     0.051770000000     0.051770000000     0          
O621     O      0.448230000000     0.551770000000     0.051770000000     0          
O622     O      0.448230000000     0.051770000000     0.551770000000     0          
O623     O      0.051770000000     0.551770000000     0.448230000000     0          
O624     O      0.051770000000     0.051770000000     0.948230000000     0          
O625     O      0.948230000000     0.448230000000     0.448230000000     0          
O626     O      0.948230000000     0.948230000000     0.948230000000     0          
O627     O      0.448230000000     0.448230000000     0.948230000000     0          
O628     O      0.551770000000     0.448230000000     0.051770000000     0          
O629     O      0.551770000000     0.551770000000     0.948230000000     0          
O630     O      0.551770000000     0.051770000000     0.448230000000     0          
O631     O      0.448230000000     0.948230000000     0.448230000000     0          
O632     O      0.551770000000     0.948230000000     0.551770000000     0          
H633     H      0.890010000000     0.754650000000     0.932340000000     0          
H634     H      0.913560000000     0.737550000000     0.985290000000     0          
H635     H      0.593760000000     0.734110000000     0.546420000000     0          
H636     H      0.563100000000     0.776280000000     0.505450000000     0          
H637     H      0.580310000000     0.703400000000     0.066610000000     0          
H638     H      0.563810000000     0.724390000000     0.004370000000     0          
H639     H      0.906000000000     0.765560000000     0.452560000000     0          
H640     H      0.920280000000     0.703380000000     0.433610000000     0          
H641     H      0.094000000000     0.734440000000     0.047440000000     0          
H642     H      0.063790000000     0.775280000000     0.004400000000     0          
H643     H      0.234360000000     0.906130000000     0.547210000000     0          
H644     H      0.275580000000     0.936180000000     0.504360000000     0          
H645     H      0.406280000000     0.765940000000     0.953750000000     0          
H646     H      0.419420000000     0.704170000000     0.932740000000     0          
H647     H      0.245080000000     0.610080000000     0.432240000000     0          
H648     H      0.210930000000     0.561360000000     0.488410000000     0          
H649     H      0.389880000000     0.255050000000     0.932180000000     0          
H650     H      0.413640000000     0.237580000000     0.985320000000     0          
H651     H      0.276300000000     0.063100000000     0.494540000000     0          
H652     H      0.101740000000     0.196250000000     0.062520000000     0          
H653     H      0.065070000000     0.219520000000     0.004040000000     0          
H654     H      0.220430000000     0.434600000000     0.503210000000     0          
H655     H      0.561340000000     0.210560000000     0.487950000000     0          
H656     H      0.610150000000     0.244820000000     0.432130000000     0          
H657     H      0.593920000000     0.234400000000     0.047330000000     0          
H658     H      0.563900000000     0.275430000000     0.004310000000     0          
H659     H      0.934920000000     0.280230000000     0.503970000000     0          
H660     H      0.904040000000     0.232620000000     0.541030000000     0          
H661     H      0.906120000000     0.265620000000     0.952730000000     0          
H662     H      0.919730000000     0.203360000000     0.933440000000     0          
H663     H      0.580520000000     0.795910000000     0.567180000000     0          
H664     H      0.936200000000     0.724710000000     0.495610000000     0          
H665     H      0.475070000000     0.892450000000     0.284670000000     0          
H666     H      0.518990000000     0.607140000000     0.216900000000     0          
H667     H      0.296610000000     0.919700000000     0.566600000000     0          
H668     H      0.262510000000     0.586450000000     0.485180000000     0          
H669     H      0.475150000000     0.784650000000     0.607540000000     0          
H670     H      0.524850000000     0.715350000000     0.892470000000     0          
H671     H      0.586370000000     0.262460000000     0.485260000000     0          
H672     H      0.898490000000     0.304040000000     0.562280000000     0          
H673     H      0.524920000000     0.392450000000     0.215330000000     0          
H674     H      0.480960000000     0.107160000000     0.283100000000     0          
H675     H      0.295910000000     0.080530000000     0.432840000000     0          
H676     H      0.267270000000     0.403780000000     0.541610000000     0          
H677     H      0.983290000000     0.606900000000     0.717310000000     0          
H678     H      0.024860000000     0.892460000000     0.784650000000     0          
H679     H      0.974860000000     0.107610000000     0.784690000000     0          
H680     H      0.024280000000     0.390440000000     0.714730000000     0          
H681     H      0.974740000000     0.107650000000     0.215300000000     0          
H682     H      0.024300000000     0.390450000000     0.285270000000     0          
H683     H      0.234110000000     0.093750000000     0.453590000000     0          
H684     H      0.195380000000     0.398990000000     0.561790000000     0          
H685     H      0.607610000000     0.974890000000     0.284680000000     0          
H686     H      0.892440000000     0.024940000000     0.215330000000     0          
H687     H      0.714730000000     0.475700000000     0.109560000000     0          
H688     H      0.109560000000     0.524290000000     0.714730000000     0          
H689     H      0.784670000000     0.524930000000     0.392440000000     0          
H690     H      0.392460000000     0.475100000000     0.784670000000     0          
H691     H      0.715330000000     0.524950000000     0.892440000000     0          
H692     H      0.107560000000     0.475060000000     0.284670000000     0          
H693     H      0.784680000000     0.475030000000     0.607570000000     0          
H694     H      0.390450000000     0.524250000000     0.214740000000     0          
H695     H      0.715330000000     0.975070000000     0.607560000000     0          
H696     H      0.785270000000     0.024290000000     0.890440000000     0          
H697     H      0.392430000000     0.975040000000     0.715350000000     0          
H698     H      0.107560000000     0.024920000000     0.784670000000     0          
H699     H      0.436930000000     0.723590000000     0.994510000000     0          
H700     H      0.079720000000     0.796620000000     0.066380000000     0          
H701     H      0.936170000000     0.224470000000     0.995650000000     0          
H702     H      0.580740000000     0.295470000000     0.064700000000     0          
H703     H      0.438660000000     0.289430000000     0.987960000000     0          
H704     H      0.095860000000     0.267440000000     0.040720000000     0          
H705     H      0.938650000000     0.789040000000     0.988430000000     0          
H706     H      0.593940000000     0.763530000000     0.046440000000     0          
H707     H      0.783100000000     0.892860000000     0.018990000000     0          
H708     H      0.715330000000     0.892440000000     0.475070000000     0          
H709     H      0.715290000000     0.607580000000     0.974940000000     0          
H710     H      0.784670000000     0.607560000000     0.524920000000     0          
H711     H      0.392440000000     0.784680000000     0.475030000000     0          
H712     H      0.217290000000     0.893080000000     0.983110000000     0          
H713     H      0.107140000000     0.716900000000     0.518980000000     0          
H714     H      0.284660000000     0.607540000000     0.024860000000     0          
H715     H      0.392460000000     0.215330000000     0.524900000000     0          
H716     H      0.283110000000     0.392870000000     0.018950000000     0          
H717     H      0.107550000000     0.284670000000     0.475090000000     0          
H718     H      0.215310000000     0.107560000000     0.975050000000     0          
H719     H      0.715340000000     0.107530000000     0.524840000000     0          
H720     H      0.715340000000     0.392400000000     0.974950000000     0          
H721     H      0.784680000000     0.392430000000     0.475030000000     0          
H722     H      0.784670000000     0.107550000000     0.024930000000     0          
H723     H      0.494570000000     0.063120000000     0.723710000000     0          
H724     H      0.432860000000     0.080500000000     0.704040000000     0          
H725     H      0.453510000000     0.093650000000     0.765870000000     0          
H726     H      0.566580000000     0.919710000000     0.703370000000     0          
H727     H      0.547250000000     0.906110000000     0.765630000000     0          
H728     H      0.504360000000     0.936170000000     0.724450000000     0          
H729     H      0.065510000000     0.918540000000     0.201860000000     0          
H730     H      0.048640000000     0.905970000000     0.265140000000     0          
H731     H      0.004580000000     0.936430000000     0.224930000000     0          
H732     H      0.210920000000     0.488400000000     0.561360000000     0          
H733     H      0.244990000000     0.432200000000     0.610110000000     0          
H734     H      0.262540000000     0.485140000000     0.586460000000     0          
H735     H      0.284690000000     0.974360000000     0.392270000000     0          
H736     H      0.267280000000     0.541540000000     0.403820000000     0          
H737     H      0.220380000000     0.503220000000     0.434610000000     0          
H738     H      0.195430000000     0.561830000000     0.398950000000     0          
H739     H      0.765550000000     0.047460000000     0.405990000000     0          
H740     H      0.724740000000     0.004370000000     0.436210000000     0          
H741     H      0.703360000000     0.066370000000     0.420280000000     0          
H742     H      0.276410000000     0.005330000000     0.563250000000     0          
H743     H      0.295990000000     0.067260000000     0.580920000000     0          
H744     H      0.234090000000     0.046360000000     0.593690000000     0          
H745     H      0.610120000000     0.432190000000     0.755040000000     0          
H746     H      0.586460000000     0.485130000000     0.737460000000     0          
H747     H      0.561370000000     0.488390000000     0.789110000000     0          
H748     H      0.329560000000     0.025050000000     0.222330000000     0          
H749     H      0.405740000000     0.050170000000     0.235460000000     0          
H750     H      0.436140000000     0.004260000000     0.273980000000     0          
H751     H      0.418660000000     0.064380000000     0.299330000000     0          
H752     H      0.563570000000     0.504570000000     0.225160000000     0          
H753     H      0.581900000000     0.565060000000     0.201240000000     0          
H754     H      0.594080000000     0.549200000000     0.264930000000     0          
H755     H      0.563250000000     0.005330000000     0.723590000000     0          
H756     H      0.580920000000     0.067260000000     0.704020000000     0          
H757     H      0.593680000000     0.046360000000     0.765910000000     0          
H758     H      0.453740000000     0.234060000000     0.093670000000     0          
H759     H      0.494540000000     0.276450000000     0.063110000000     0          
H760     H      0.432700000000     0.295840000000     0.080770000000     0          
H761     H      0.975040000000     0.784650000000     0.107570000000     0          
H762     H      0.985450000000     0.237650000000     0.586410000000     0          
H763     H      0.988610000000     0.288930000000     0.561440000000     0          
H764     H      0.932550000000     0.254170000000     0.609840000000     0          
H765     H      0.504410000000     0.224560000000     0.563770000000     0          
H766     H      0.566490000000     0.203390000000     0.580020000000     0          
H767     H      0.547380000000     0.265590000000     0.593830000000     0          
H768     H      0.014430000000     0.262290000000     0.086420000000     0          
H769     H      0.011310000000     0.211200000000     0.061430000000     0          
H770     H      0.067140000000     0.246510000000     0.109620000000     0          
H771     H      0.004590000000     0.725140000000     0.563570000000     0          
H772     H      0.065070000000     0.701260000000     0.581910000000     0          
H773     H      0.049170000000     0.764940000000     0.594070000000     0          
H774     H      0.566580000000     0.796620000000     0.419720000000     0          
H775     H      0.547240000000     0.734370000000     0.406120000000     0          
H776     H      0.504350000000     0.775560000000     0.436160000000     0          
H777     H      0.541600000000     0.403880000000     0.732720000000     0          
H778     H      0.561790000000     0.398980000000     0.804610000000     0          
H779     H      0.503200000000     0.434610000000     0.779600000000     0          
H780     H      0.495620000000     0.563790000000     0.775250000000     0          
H781     H      0.452530000000     0.594000000000     0.734450000000     0          
H782     H      0.433640000000     0.579710000000     0.796640000000     0          
H783     H      0.995650000000     0.563840000000     0.275530000000     0          
H784     H      0.952730000000     0.593900000000     0.234380000000     0          
H785     H      0.933430000000     0.580270000000     0.296640000000     0          
H786     H      0.275280000000     0.504390000000     0.936230000000     0          
H787     H      0.234440000000     0.547450000000     0.906000000000     0          
H788     H      0.296630000000     0.566380000000     0.920270000000     0          
H789     H      0.202950000000     0.065940000000     0.079370000000     0          
H790     H      0.225320000000     0.004170000000     0.063980000000     0          
H791     H      0.265310000000     0.048160000000     0.094110000000     0          
H792     H      0.798750000000     0.934940000000     0.081900000000     0          
H793     H      0.774840000000     0.995430000000     0.063570000000     0          
H794     H      0.735070000000     0.950800000000     0.094090000000     0          
H795     H      0.298740000000     0.434920000000     0.081910000000     0          
H796     H      0.274860000000     0.495420000000     0.063550000000     0          
H797     H      0.235060000000     0.450830000000     0.094070000000     0          
H798     H      0.265100000000     0.951230000000     0.905970000000     0          
H799     H      0.201700000000     0.934600000000     0.918370000000     0          
H800     H      0.224960000000     0.995410000000     0.936460000000     0          
H801     H      0.918390000000     0.565430000000     0.701730000000     0          
H802     H      0.936450000000     0.504590000000     0.724950000000     0          
H803     H      0.905970000000     0.548740000000     0.765110000000     0          
H804     H      0.168670000000     0.979160000000     0.278340000000     0          
H805     H      0.106870000000     0.984140000000     0.217730000000     0          
H806     H      0.906240000000     0.453580000000     0.234110000000     0          
H807     H      0.919480000000     0.432820000000     0.295910000000     0          
H808     H      0.936900000000     0.494550000000     0.276280000000     0          
H809     H      0.906000000000     0.952540000000     0.734440000000     0          
H810     H      0.920280000000     0.933620000000     0.796630000000     0          
H811     H      0.936210000000     0.995630000000     0.775270000000     0          
H812     H      0.541710000000     0.267250000000     0.403740000000     0          
H813     H      0.561710000000     0.195300000000     0.399060000000     0          
H814     H      0.503120000000     0.220530000000     0.434550000000     0          
H815     H      0.046080000000     0.266000000000     0.906400000000     0          
H816     H      0.067480000000     0.204190000000     0.918730000000     0          
H817     H      0.005490000000     0.223300000000     0.936900000000     0          
H818     H      0.024860000000     0.715350000000     0.392460000000     0          
H819     H      0.458390000000     0.232720000000     0.903890000000     0          
H820     H      0.438210000000     0.304620000000     0.898990000000     0          
H821     H      0.496840000000     0.279580000000     0.934550000000     0          
H822     H      0.958670000000     0.732680000000     0.903840000000     0          
H823     H      0.938050000000     0.804430000000     0.898830000000     0          
H824     H      0.996740000000     0.779760000000     0.934610000000     0          
H825     H      0.952990000000     0.234290000000     0.406180000000     0          
H826     H      0.933210000000     0.296490000000     0.419380000000     0          
H827     H      0.995500000000     0.275810000000     0.436300000000     0          
H828     H      0.432740000000     0.704020000000     0.080920000000     0          
H829     H      0.494670000000     0.723590000000     0.063250000000     0          
H830     H      0.453640000000     0.765920000000     0.093680000000     0          
H831     H      0.147000000000     0.039700000000     0.164530000000     0          
H832     H      0.334510000000     0.039400000000     0.353310000000     0          


